version 2
run Nodes_in_grid-2-20130619-15:02:46-5871
attr configname Nodes_in_grid
attr datetime 20130619-15:02:46
attr experiment Nodes_in_grid
attr inifile omnetpp.ini
attr iterationvars "$0=5000, $1=5000, $2=5000, $3=5000, $4=5000, $5=5000, $6=5000, $7=5000, $8=5000, $9=2500, $10=0, $11=0, $12=0, $13=0, $14=0, $15=0, $16=0, $17=0, $18=0, $19=0, $plan=3, $sensitivity=-100dBm, $20=0"
attr iterationvars2 "$0=5000, $1=5000, $2=5000, $3=5000, $4=5000, $5=5000, $6=5000, $7=5000, $8=5000, $9=2500, $10=0, $11=0, $12=0, $13=0, $14=0, $15=0, $16=0, $17=0, $18=0, $19=0, $plan=3, $sensitivity=-100dBm, $20=0, $repetition=0"
attr measurement "$0=5000, $1=5000, $2=5000, $3=5000, $4=5000, $5=5000, $6=5000, $7=5000, $8=5000, $9=2500, $10=0, $11=0, $12=0, $13=0, $14=0, $15=0, $16=0, $17=0, $18=0, $19=0, $plan=3, $sensitivity=-100dBm, $20=0"
attr network Forest
attr plan 3
attr processid 5871
attr repetition 0
attr replication #0
attr resultdir results
attr runnumber 2
attr seedset 2
attr sensitivity -100dBm

scalar . 	plan 	3
scalar . 	sensitivity 	-100
attr unit  dBm
scalar Forest.networkOne[0].nic.mac 	nbTxFrames 	2490
scalar Forest.networkOne[0].nic.mac 	nbRxFrames 	108737
scalar Forest.networkOne[0].nic.mac 	nbDroppedFrames 	15
scalar Forest.networkOne[0].nic.mac 	nbMissedAcks 	0
scalar Forest.networkOne[0].nic.mac 	nbRecvdAcks 	0
scalar Forest.networkOne[0].nic.mac 	nbTxAcks 	0
scalar Forest.networkOne[0].nic.mac 	nbDuplicates 	0
scalar Forest.networkOne[0].nic.mac 	meanBackoff 	0.001441429043996
scalar Forest.networkOne[0].nic.mac 	nbBackoffs 	3023
scalar Forest.networkOne[0].nic.mac 	backoffDurations 	4.35744
scalar Forest.networkOne[0].nic.phy 	nbFramesWithInterference 	17303
scalar Forest.networkOne[0].nic.phy 	nbFramesWithoutInterference 	111055
scalar Forest.networkOne[0].nic.phy 	nbFramesWithInterferencePartial 	6049
scalar Forest.networkOne[0].nic.phy 	nbFramesWithoutInterferencePartial 	1671
scalar Forest.networkOne[0].nic.phy 	nbFramesWithInterferenceDropped 	6192
scalar Forest.networkOne[0].nic.phy 	nbFramesWithoutInterferenceDropped 	21744
scalar Forest.networkOne[0].netwl 	nbDataPacketsForwarded 	0
scalar Forest.networkOne[0].netwl 	nbDataPacketsReceived 	85429
scalar Forest.networkOne[0].netwl 	nbDataPacketsSent 	2500
scalar Forest.networkOne[0].netwl 	nbDuplicatedFloodsReceived 	24047
scalar Forest.networkOne[0].netwl 	nbFloodsSent 	2505
scalar Forest.networkOne[0].netwl 	nbPureUnicastSent 	0
scalar Forest.networkOne[0].netwl 	nbRouteFloodsSent 	5
scalar Forest.networkOne[0].netwl 	nbRouteFloodsReceived 	0
scalar Forest.networkOne[0].netwl 	nbUnicastFloodForwarded 	0
scalar Forest.networkOne[0].netwl 	nbPureUnicastForwarded 	0
scalar Forest.networkOne[0].netwl 	nbGetRouteFailures 	2500
scalar Forest.networkOne[0].netwl 	nbRoutesRecorded 	0
scalar Forest.networkOne[0].netwl 	meanNbHops 	0.30928607381568
scalar Forest.networkOne[0].tranl 	nbAggrPktReceived 	0
scalar Forest.networkOne[0].tranl 	"nbAggrPktSentDown " 	0
scalar Forest.networkOne[0].appl 	latency1 	0.0055751061869419
attr unit  s
statistic Forest.networkOne[0].appl 	1
field count 2411
field mean 0.0055751061869419
field stddev 0.0041228674429576
field sum 13.441581016717
field sqrsum 0.11590350813338
field min 0.003232
field max 0.046812701583
scalar Forest.networkOne[0].appl 	latency2 	0.0055641209800678
attr unit  s
statistic Forest.networkOne[0].appl 	2
field count 2407
field mean 0.0055641209800678
field stddev 0.004152039948075
field sum 13.392839199023
field sqrsum 0.11599745993733
field min 0.003232
field max 0.048615574389
scalar Forest.networkOne[0].appl 	latency3 	0.0055563125103665
attr unit  s
statistic Forest.networkOne[0].appl 	3
field count 2142
field mean 0.0055563125103665
field stddev 0.0041158302672014
field sum 11.901621397205
field sqrsum 0.10239779372892
field min 0.003232
field max 0.050659860287
scalar Forest.networkOne[0].appl 	latency4 	0.0054283741871181
attr unit  s
statistic Forest.networkOne[0].appl 	4
field count 1710
field mean 0.0054283741871181
field stddev 0.0039372471562225
field sum 9.282519859972
field sqrsum 0.076881764223416
field min 0.003232
field max 0.047421752319
scalar Forest.networkOne[0].appl 	latency5 	0.0054271855600296
attr unit  s
statistic Forest.networkOne[0].appl 	5
field count 1216
field mean 0.0054271855600296
field stddev 0.0038305612272327
field sum 6.599457640996
field sqrsum 0.053644418381669
field min 0.003232
field max 0.04820071836
scalar Forest.networkOne[0].appl 	latency6 	0.0055879490364669
attr unit  s
statistic Forest.networkOne[0].appl 	6
field count 786
field mean 0.0055879490364669
field stddev 0.0042006081767724
field sum 4.392127942663
field sqrsum 0.038394397713235
field min 0.003232
field max 0.044750161427
scalar Forest.networkOne[0].appl 	latency7 	0.01062458807406
attr unit  s
statistic Forest.networkOne[0].appl 	7
field count 319
field mean 0.01062458807406
field stddev 0.0047760352501663
field sum 3.389243595625
field sqrsum 0.043263060128204
field min 0.006464
field max 0.042271135136
scalar Forest.networkOne[0].appl 	latency8 	0.010878905508413
attr unit  s
statistic Forest.networkOne[0].appl 	8
field count 339
field mean 0.010878905508413
field stddev 0.0053873747419993
field sum 3.687948967352
field sqrsum 0.049930894970099
field min 0.006464
field max 0.048904675377
scalar Forest.networkOne[0].appl 	latency9 	0.0055266172122963
attr unit  s
statistic Forest.networkOne[0].appl 	9
field count 2403
field mean 0.0055266172122963
field stddev 0.0042097691285557
field sum 13.280461161148
field sqrsum 0.11596464423044
field min 0.003232
field max 0.052102818338
scalar Forest.networkOne[0].appl 	latency10 	0.0051588435061238
attr unit  s
statistic Forest.networkOne[0].appl 	10
field count 3813
field mean 0.0051588435061238
field stddev 0.0036774822736163
field sum 19.67067028885
field sqrsum 0.1530309245077
field min 0.003232
field max 0.049900146875
scalar Forest.networkOne[0].appl 	latency11 	0.0055421874139678
attr unit  s
statistic Forest.networkOne[0].appl 	11
field count 2363
field mean 0.0055421874139678
field stddev 0.0040604038164954
field sum 13.096188859206
field sqrsum 0.11152354162585
field min 0.003232
field max 0.045713312118
scalar Forest.networkOne[0].appl 	latency12 	0.0054831266274146
attr unit  s
statistic Forest.networkOne[0].appl 	12
field count 2009
field mean 0.0054831266274146
field stddev 0.0040443893927271
field sum 11.015601394476
field sqrsum 0.093244965127524
field min 0.003232
field max 0.048837905056
scalar Forest.networkOne[0].appl 	latency13 	0.0051244732142843
attr unit  s
statistic Forest.networkOne[0].appl 	13
field count 2652
field mean 0.0051244732142843
field stddev 0.0034080713837794
field sum 13.590102964282
field sqrsum 0.10043335254627
field min 0.003232
field max 0.046535711037
scalar Forest.networkOne[0].appl 	latency14 	0.011036624427836
attr unit  s
statistic Forest.networkOne[0].appl 	14
field count 812
field mean 0.011036624427836
field stddev 0.0053255705167754
field sum 8.961739035403
field sqrsum 0.12190868773196
field min 0.006464
field max 0.050207662499
scalar Forest.networkOne[0].appl 	latency15 	0.0056677680823355
attr unit  s
statistic Forest.networkOne[0].appl 	15
field count 763
field mean 0.0056677680823355
field stddev 0.0043263216204824
field sum 4.324507046822
field sqrsum 0.038772701789869
field min 0.003232
field max 0.051673073101
scalar Forest.networkOne[0].appl 	latency16 	0.010755007209933
attr unit  s
statistic Forest.networkOne[0].appl 	16
field count 537
field mean 0.010755007209933
field stddev 0.0042719082075934
field sum 5.775438871734
field sqrsum 0.071896457763506
field min 0.006464
field max 0.044842039536
scalar Forest.networkOne[0].appl 	latency17 	0.010892801515586
attr unit  s
statistic Forest.networkOne[0].appl 	17
field count 437
field mean 0.010892801515586
field stddev 0.0049058967697169
field sum 4.760154262311
field sqrsum 0.062344986441115
field min 0.006464
field max 0.048250888428
scalar Forest.networkOne[0].appl 	latency18 	0.0054699884446119
attr unit  s
statistic Forest.networkOne[0].appl 	18
field count 2396
field mean 0.0054699884446119
field stddev 0.0038729195807373
field sum 13.10609231329
field sqrsum 0.10761399056658
field min 0.003232
field max 0.056757604644
scalar Forest.networkOne[0].appl 	latency19 	0.0055891412090823
attr unit  s
statistic Forest.networkOne[0].appl 	19
field count 2322
field mean 0.0055891412090823
field stddev 0.0042871607350447
field sum 12.977985887489
field sqrsum 0.11519518891183
field min 0.003232
field max 0.059818492234
scalar Forest.networkOne[0].appl 	latency20 	0.0053271979495692
attr unit  s
statistic Forest.networkOne[0].appl 	20
field count 2210
field mean 0.0053271979495692
field stddev 0.0038035916321533
field sum 11.773107468548
field sqrsum 0.094675960219455
field min 0.003232
field max 0.050294723614
scalar Forest.networkOne[0].appl 	latency21 	0.005505066378906
attr unit  s
statistic Forest.networkOne[0].appl 	21
field count 1851
field mean 0.005505066378906
field stddev 0.004057310399524
field sum 10.189877867355
field sqrsum 0.086550224257193
field min 0.003232
field max 0.045912206454
scalar Forest.networkOne[0].appl 	latency22 	0.010785199160236
attr unit  s
statistic Forest.networkOne[0].appl 	22
field count 628
field mean 0.010785199160236
field stddev 0.0046965650581082
field sum 6.773105072628
field sqrsum 0.086879479678838
field min 0.006464
field max 0.044227671748
scalar Forest.networkOne[0].appl 	latency23 	0.0053778020336478
attr unit  s
statistic Forest.networkOne[0].appl 	23
field count 1042
field mean 0.0053778020336478
field stddev 0.0036142866423327
field sum 5.603669719061
field sqrsum 0.043734080129253
field min 0.003232
field max 0.047840932234
scalar Forest.networkOne[0].appl 	latency24 	0.0054249163406718
attr unit  s
statistic Forest.networkOne[0].appl 	24
field count 710
field mean 0.0054249163406718
field stddev 0.0036108402321508
field sum 3.851690601877
field sqrsum 0.030139159817457
field min 0.003232
field max 0.039632125306
scalar Forest.networkOne[0].appl 	latency25 	0.010619743212836
attr unit  s
statistic Forest.networkOne[0].appl 	25
field count 615
field mean 0.010619743212836
field stddev 0.0042450406328185
field sum 6.531142075894
field sqrsum 0.08042355889675
field min 0.006464
field max 0.040204775737
scalar Forest.networkOne[0].appl 	latency26 	0.011189107210172
attr unit  s
statistic Forest.networkOne[0].appl 	26
field count 540
field mean 0.011189107210172
field stddev 0.0057991419408839
field sum 6.042117893493
field sqrsum 0.085732500354823
field min 0.006464
field max 0.071042174406
scalar Forest.networkOne[0].appl 	latency27 	0.0055718023200457
attr unit  s
statistic Forest.networkOne[0].appl 	27
field count 2168
field mean 0.0055718023200457
field stddev 0.0041656295681825
field sum 12.079667429859
field sqrsum 0.10490832084949
field min 0.003232
field max 0.048537592965
scalar Forest.networkOne[0].appl 	latency28 	0.0054558951427538
attr unit  s
statistic Forest.networkOne[0].appl 	28
field count 2108
field mean 0.0054558951427538
field stddev 0.004069766593845
field sum 11.501026960925
field sqrsum 0.097646638403282
field min 0.003232
field max 0.059129124659
scalar Forest.networkOne[0].appl 	latency29 	0.0054619049425709
attr unit  s
statistic Forest.networkOne[0].appl 	29
field count 1883
field mean 0.0054619049425709
field stddev 0.0036684762092894
field sum 10.284767006861
field sqrsum 0.081501844455831
field min 0.003232
field max 0.039058816551
scalar Forest.networkOne[0].appl 	latency30 	0.0055266917730116
attr unit  s
statistic Forest.networkOne[0].appl 	30
field count 1555
field mean 0.0055266917730116
field stddev 0.0040778627984827
field sum 8.594005707033
field sqrsum 0.073337832253323
field min 0.003232
field max 0.05207818473
scalar Forest.networkOne[0].appl 	latency31 	0.0054244538096156
attr unit  s
statistic Forest.networkOne[0].appl 	31
field count 1233
field mean 0.0054244538096156
field stddev 0.003519024322465
field sum 6.688351547256
field sqrsum 0.051537165678909
field min 0.003232
field max 0.040650677236
scalar Forest.networkOne[0].appl 	latency32 	0.0055664951373211
attr unit  s
statistic Forest.networkOne[0].appl 	32
field count 869
field mean 0.0055664951373211
field stddev 0.0039256278649869
field sum 4.837284274332
field sqrsum 0.040303080379535
field min 0.003232
field max 0.036561639204
scalar Forest.networkOne[0].appl 	latency33 	0.01102746298469
attr unit  s
statistic Forest.networkOne[0].appl 	33
field count 681
field mean 0.01102746298469
field stddev 0.005493638212795
field sum 7.509702292574
field sqrsum 0.1033354054103
field min 0.006464
field max 0.054562676979
scalar Forest.networkOne[0].appl 	latency34 	0.011486067713933
attr unit  s
statistic Forest.networkOne[0].appl 	34
field count 652
field mean 0.011486067713933
field stddev 0.0062167821824417
field sum 7.488916149484
field sqrsum 0.11117829383519
field min 0.006464
field max 0.052351478321
scalar Forest.networkOne[0].appl 	latency35 	0.010979305077884
attr unit  s
statistic Forest.networkOne[0].appl 	35
field count 569
field mean 0.010979305077884
field stddev 0.0050189833031041
field sum 6.247224589316
field sqrsum 0.082898214505563
field min 0.006464
field max 0.048202037109
scalar Forest.networkOne[0].appl 	latency36 	0.0055410164491502
attr unit  s
statistic Forest.networkOne[0].appl 	36
field count 1691
field mean 0.0055410164491502
field stddev 0.0039664222177444
field sum 9.369858815513
field sqrsum 0.078506475626886
field min 0.003232
field max 0.052451287198
scalar Forest.networkOne[0].appl 	latency37 	0.005103175011856
attr unit  s
statistic Forest.networkOne[0].appl 	37
field count 2541
field mean 0.005103175011856
field stddev 0.0032488740383055
field sum 12.967167705126
field sqrsum 0.092983889799955
field min 0.003232
field max 0.041360606356
scalar Forest.networkOne[0].appl 	latency38 	0.0054463636850142
attr unit  s
statistic Forest.networkOne[0].appl 	38
field count 1476
field mean 0.0054463636850142
field stddev 0.0037318118933069
field sum 8.038832799081
field sqrsum 0.064323876537181
field min 0.003232
field max 0.058280090002
scalar Forest.networkOne[0].appl 	latency39 	0.010688598600256
attr unit  s
statistic Forest.networkOne[0].appl 	39
field count 1564
field mean 0.010688598600256
field stddev 0.0046922687516717
field sum 16.716968210801
field sqrsum 0.21309413739576
field min 0.006464
field max 0.061282226948
scalar Forest.networkOne[0].appl 	latency40 	0.0050929485217589
attr unit  s
statistic Forest.networkOne[0].appl 	40
field count 1489
field mean 0.0050929485217589
field stddev 0.0031497024988808
field sum 7.583400348899
field sqrsum 0.053383758834038
field min 0.003232
field max 0.038693902285
scalar Forest.networkOne[0].appl 	latency41 	0.0058910781895319
attr unit  s
statistic Forest.networkOne[0].appl 	41
field count 722
field mean 0.0058910781895319
field stddev 0.0047528341533868
field sum 4.253358452842
field sqrsum 0.0413438480388
field min 0.003232
field max 0.041482771848
scalar Forest.networkOne[0].appl 	latency42 	0.011250629594326
attr unit  s
statistic Forest.networkOne[0].appl 	42
field count 634
field mean 0.011250629594326
field stddev 0.0053431922752511
field sum 7.132899162803
field sqrsum 0.09832156885034
field min 0.006464
field max 0.061275896203
scalar Forest.networkOne[0].appl 	latency43 	0.011467020773818
attr unit  s
statistic Forest.networkOne[0].appl 	43
field count 648
field mean 0.011467020773818
field stddev 0.0056648966657447
field sum 7.430629461434
field sqrsum 0.10597009448592
field min 0.006464
field max 0.052682009796
scalar Forest.networkOne[0].appl 	latency44 	0.011168224966199
attr unit  s
statistic Forest.networkOne[0].appl 	44
field count 602
field mean 0.011168224966199
field stddev 0.0053445558992368
field sum 6.723271429652
field sqrsum 0.092254138768974
field min 0.006464
field max 0.053757198291
scalar Forest.networkOne[0].appl 	latency45 	0.0054422527968113
attr unit  s
statistic Forest.networkOne[0].appl 	45
field count 1192
field mean 0.0054422527968113
field stddev 0.0042591832956324
field sum 6.487165333799
field sqrsum 0.056910298715086
field min 0.003232
field max 0.05297242007
scalar Forest.networkOne[0].appl 	latency46 	0.0057242387446539
attr unit  s
statistic Forest.networkOne[0].appl 	46
field count 1231
field mean 0.0057242387446539
field stddev 0.0047088875679883
field sum 7.046537894669
field sqrsum 0.067609620449721
field min 0.003232
field max 0.054415344132
scalar Forest.networkOne[0].appl 	latency47 	0.0053667172640348
attr unit  s
statistic Forest.networkOne[0].appl 	47
field count 1035
field mean 0.0053667172640348
field stddev 0.0033829450687224
field sum 5.554552368276
field sqrsum 0.041643136216297
field min 0.003232
field max 0.043999085084
scalar Forest.networkOne[0].appl 	latency48 	0.0054457603610356
attr unit  s
statistic Forest.networkOne[0].appl 	48
field count 927
field mean 0.0054457603610356
field stddev 0.0039120032129671
field sum 5.04821985468
field sqrsum 0.041662685800443
field min 0.003232
field max 0.04653287455
scalar Forest.networkOne[0].appl 	latency49 	0.011096358700891
attr unit  s
statistic Forest.networkOne[0].appl 	49
field count 682
field mean 0.011096358700891
field stddev 0.0056633020738642
field sum 7.567716634008
field sqrsum 0.10581580476632
field min 0.006464
field max 0.053824
scalar Forest.networkOne[0].appl 	latency50 	0.011002078248385
attr unit  s
statistic Forest.networkOne[0].appl 	50
field count 665
field mean 0.011002078248385
field stddev 0.0052789948694989
field sum 7.316382035176
field sqrsum 0.098999618102662
field min 0.006464
field max 0.053163576462
scalar Forest.networkOne[0].appl 	latency51 	0.010360371025158
attr unit  s
statistic Forest.networkOne[0].appl 	51
field count 748
field mean 0.010360371025158
field stddev 0.0042220936399362
field sum 7.749557526818
field sqrsum 0.093604369062817
field min 0.006464
field max 0.042571304892
scalar Forest.networkOne[0].appl 	latency52 	0.010971657482166
attr unit  s
statistic Forest.networkOne[0].appl 	52
field count 675
field mean 0.010971657482166
field stddev 0.005012735828537
field sum 7.405868800462
field sqrsum 0.098190604644563
field min 0.006464
field max 0.055884168318
scalar Forest.networkOne[0].appl 	latency53 	0.010809506371414
attr unit  s
statistic Forest.networkOne[0].appl 	53
field count 602
field mean 0.010809506371414
field stddev 0.005162588594512
field sum 6.507322835591
field sqrsum 0.086358992570874
field min 0.006464
field max 0.052025846093
scalar Forest.networkOne[0].appl 	latency54 	0.010427570068651
attr unit  s
statistic Forest.networkOne[0].appl 	54
field count 289
field mean 0.010427570068651
field stddev 0.0039396645818647
field sum 3.01356774984
field sqrsum 0.035894224489151
field min 0.006464
field max 0.032384
scalar Forest.networkOne[0].appl 	latency55 	0.005584770997204
attr unit  s
statistic Forest.networkOne[0].appl 	55
field count 809
field mean 0.005584770997204
field stddev 0.0043848809812895
field sum 4.518079736738
field sqrsum 0.040768003102609
field min 0.003232
field max 0.052036502293
scalar Forest.networkOne[0].appl 	latency56 	0.011179023361344
attr unit  s
statistic Forest.networkOne[0].appl 	56
field count 459
field mean 0.011179023361344
field stddev 0.0053659945831722
field sum 5.131171722857
field sqrsum 0.070549093783806
field min 0.006464
field max 0.042776252115
scalar Forest.networkOne[0].appl 	latency57 	0.011128986122628
attr unit  s
statistic Forest.networkOne[0].appl 	57
field count 600
field mean 0.011128986122628
field stddev 0.0058400282219332
field sum 6.677391673577
field sqrsum 0.094742051120745
field min 0.006464
field max 0.045362330397
scalar Forest.networkOne[0].appl 	latency58 	0.010990549954735
attr unit  s
statistic Forest.networkOne[0].appl 	58
field count 633
field mean 0.010990549954735
field stddev 0.0050421945747644
field sum 6.957018121347
field sqrsum 0.092529250112681
field min 0.006464
field max 0.050370333421
scalar Forest.networkOne[0].appl 	latency59 	0.0051017816491934
attr unit  s
statistic Forest.networkOne[0].appl 	59
field count 336
field mean 0.0051017816491934
field stddev 0.0024374590081492
field sum 1.714198634129
field sqrsum 0.010735771284168
field min 0.003232
field max 0.025659275876
scalar Forest.networkOne[0].appl 	latency60 	0.011016605969576
attr unit  s
statistic Forest.networkOne[0].appl 	60
field count 662
field mean 0.011016605969576
field stddev 0.0055323843712814
field sum 7.292993151859
field sqrsum 0.10057544187853
field min 0.006464
field max 0.053056309694
scalar Forest.networkOne[0].appl 	latency61 	0.0054497522622974
attr unit  s
statistic Forest.networkOne[0].appl 	61
field count 195
field mean 0.0054497522622974
field stddev 0.0044640929270469
field sum 1.062701691148
field sqrsum 0.0096575173237753
field min 0.003232
field max 0.047179023493
scalar Forest.networkOne[0].appl 	latency62 	0.011000566767012
attr unit  s
statistic Forest.networkOne[0].appl 	62
field count 520
field mean 0.011000566767012
field stddev 0.0048744060927176
field sum 5.720294718846
field sqrsum 0.075257838220388
field min 0.006464
field max 0.040716224104
scalar Forest.networkOne[0].appl 	latency63 	0.010811793980586
attr unit  s
statistic Forest.networkOne[0].appl 	63
field count 1117
field mean 0.010811793980586
field stddev 0.0054919341012019
field sum 12.076773876315
field sqrsum 0.16423164673273
field min 0.006464
field max 0.065769053174
scalar Forest.networkOne[0].appl 	latency64 	0.0048632908673142
attr unit  s
statistic Forest.networkOne[0].appl 	64
field count 837
field mean 0.0048632908673142
field stddev 0.0023358772439878
field sum 4.070574455942
field sqrsum 0.024357873185453
field min 0.003232
field max 0.02840983388
scalar Forest.networkOne[0].appl 	latency65 	0.010706496830707
attr unit  s
statistic Forest.networkOne[0].appl 	65
field count 447
field mean 0.010706496830707
field stddev 0.0053945169272525
field sum 4.785804083326
field sqrsum 0.064218158794287
field min 0.006464
field max 0.052778646895
scalar Forest.networkOne[0].appl 	latency66 	0.010558837448736
attr unit  s
statistic Forest.networkOne[0].appl 	66
field count 779
field mean 0.010558837448736
field stddev 0.0048426439566486
field sum 8.225334372565
field sqrsum 0.1050950025833
field min 0.006464
field max 0.058989542916
scalar Forest.networkOne[0].appl 	latency67 	0.011050770973544
attr unit  s
statistic Forest.networkOne[0].appl 	67
field count 579
field mean 0.011050770973544
field stddev 0.0059119758645925
field sum 6.398396393682
field sqrsum 0.090909156228927
field min 0.006464
field max 0.051679497504
scalar Forest.networkOne[0].appl 	latency68 	0.011151457736499
attr unit  s
statistic Forest.networkOne[0].appl 	68
field count 597
field mean 0.011151457736499
field stddev 0.0055578892110529
field sum 6.65742026869
field sqrsum 0.092650459719883
field min 0.006464
field max 0.058855766855
scalar Forest.networkOne[0].appl 	latency69 	0.01079893773192
attr unit  s
statistic Forest.networkOne[0].appl 	69
field count 560
field mean 0.01079893773192
field stddev 0.0048178823618095
field sum 6.047405129875
field sqrsum 0.078281054100011
field min 0.006464
field max 0.042771710345
scalar Forest.networkOne[0].appl 	latency70 	0.010558133667261
attr unit  s
statistic Forest.networkOne[0].appl 	70
field count 529
field mean 0.010558133667261
field stddev 0.0043300487159967
field sum 5.585252709981
field sqrsum 0.068869486631584
field min 0.006464
field max 0.05896521009
scalar Forest.networkOne[0].appl 	latency71 	0.010583310894816
attr unit  s
statistic Forest.networkOne[0].appl 	71
field count 217
field mean 0.010583310894816
field stddev 0.0047427004742892
field sum 2.296578464175
field sqrsum 0.029163936763088
field min 0.006464
field max 0.047494890008
scalar Forest.networkOne[0].appl 	latency72 	0.010625536923229
attr unit  s
statistic Forest.networkOne[0].appl 	72
field count 205
field mean 0.010625536923229
field stddev 0.0051568255550966
field sum 2.178235069262
field sqrsum 0.028569858516279
field min 0.006464
field max 0.055569779545
scalar Forest.networkOne[0].appl 	latency73 	0.010321433875737
attr unit  s
statistic Forest.networkOne[0].appl 	73
field count 468
field mean 0.010321433875737
field stddev 0.0045118062954767
field sum 4.830431053845
field sqrsum 0.059363411667939
field min 0.006464
field max 0.05131970257
scalar Forest.networkOne[0].appl 	latency74 	0.010466190982526
attr unit  s
statistic Forest.networkOne[0].appl 	74
field count 965
field mean 0.010466190982526
field stddev 0.0045332796987443
field sum 10.099874298138
field sqrsum 0.1255180156371
field min 0.006464
field max 0.052819135549
scalar Forest.networkOne[0].appl 	latency75 	0.011060672843708
attr unit  s
statistic Forest.networkOne[0].appl 	75
field count 867
field mean 0.011060672843708
field stddev 0.0058611098460736
field sum 9.589603355495
field sqrsum 0.13581682448768
field min 0.006464
field max 0.052544
scalar Forest.networkOne[0].appl 	latency76 	0.010639287430118
attr unit  s
statistic Forest.networkOne[0].appl 	76
field count 754
field mean 0.010639287430118
field stddev 0.0049376993173142
field sum 8.022022722309
field sqrsum 0.10370740404838
field min 0.006464
field max 0.04939136791
scalar Forest.networkOne[0].appl 	latency77 	0.010934069640547
attr unit  s
statistic Forest.networkOne[0].appl 	77
field count 483
field mean 0.010934069640547
field stddev 0.0049889805473299
field sum 5.281155636384
field sqrsum 0.069741468277376
field min 0.006464
field max 0.041024079158
scalar Forest.networkOne[0].appl 	latency78 	0.011160137324998
attr unit  s
statistic Forest.networkOne[0].appl 	78
field count 435
field mean 0.011160137324998
field stddev 0.0052548305710114
field sum 4.854659736374
field sqrsum 0.066162817363307
field min 0.006464
field max 0.051982381618
scalar Forest.networkOne[0].appl 	latency79 	0.010782684219706
attr unit  s
statistic Forest.networkOne[0].appl 	79
field count 316
field mean 0.010782684219706
field stddev 0.0055053344911124
field sum 3.407328213427
field sqrsum 0.046287387133872
field min 0.006464
field max 0.054291644455
scalar Forest.networkOne[0].appl 	latency80 	0.015864270965006
attr unit  s
statistic Forest.networkOne[0].appl 	80
field count 496
field mean 0.015864270965006
field stddev 0.0054982167734422
field sum 7.868678398643
field sqrsum 0.139794888158
field min 0.009696
field max 0.054374100087
scalar Forest.networkOne[0].appl 	"activity duration" 	4999.8127467652
attr unit  s
scalar Forest.networkOne[0].appl 	firstPacketGeneration 	10.025926227914
attr unit  s
scalar Forest.networkOne[0].appl 	lastPacketReception 	5009.8386729932
attr unit  s
scalar Forest.networkOne[0].appl 	nbPacketsSent 	2500
scalar Forest.networkOne[0].appl 	nbPacketsReceived 	85429
statistic Forest.networkOne[0].appl 	latency
field count 85429
field mean 0.0071159043588187
field stddev 0.0050420325682323
field sum 607.90459346952
field sqrsum 6.4975494575959
field min 0.003232
field max 0.071042174406
scalar Forest.networkOne[0].batteryStats 	nominal 	10800000
attr unit  mW-s
scalar Forest.networkOne[0].batteryStats 	total 	220030.89085599
attr unit  mW-s
scalar Forest.networkOne[0].batteryStats 	lifetime 	-1
attr unit  s
scalar Forest.networkOne[0].batteryStats 	"Mean power consumption" 	43.916822305968
attr unit  mW
scalar Forest.networkOne[0].batteryStats 	"num devices" 	1
scalar Forest.networkOne[0].batteryStats 	"physical layer" 	0
scalar Forest.networkOne[0].batteryStats 	"device total (mWs)" 	220030.89085495
scalar Forest.networkOne[0].batteryStats 	account 	0
scalar Forest.networkOne[0].batteryStats 	"energy (mWs)" 	0.069848618602588
scalar Forest.networkOne[0].batteryStats 	"time (s)" 	1108.7082317871
scalar Forest.networkOne[0].batteryStats 	"account 0" 	0.069848618602588
scalar Forest.networkOne[0].batteryStats 	account 	1
scalar Forest.networkOne[0].batteryStats 	"energy (mWs)" 	219831.32585053
scalar Forest.networkOne[0].batteryStats 	"time (s)" 	3897.718543449
scalar Forest.networkOne[0].batteryStats 	"account 1" 	219831.32585053
scalar Forest.networkOne[0].batteryStats 	account 	2
scalar Forest.networkOne[0].batteryStats 	"energy (mWs)" 	145.558656
scalar Forest.networkOne[0].batteryStats 	"time (s)" 	2.78848
scalar Forest.networkOne[0].batteryStats 	"account 2" 	145.558656
scalar Forest.networkOne[0].batteryStats 	account 	3
scalar Forest.networkOne[0].batteryStats 	"energy (mWs)" 	53.936499801596
scalar Forest.networkOne[0].batteryStats 	"time (s)" 	0.958052
scalar Forest.networkOne[0].batteryStats 	"account 3" 	53.936499801596
scalar Forest.networkOne[0].batteryStats 	account 	4
scalar Forest.networkOne[0].batteryStats 	"energy (mWs)" 	0
scalar Forest.networkOne[0].batteryStats 	"time (s)" 	0
scalar Forest.networkOne[0].batteryStats 	"account 4" 	0
scalar Forest.networkOne[1].nic.mac 	nbTxFrames 	4245
scalar Forest.networkOne[1].nic.mac 	nbRxFrames 	16991
scalar Forest.networkOne[1].nic.mac 	nbDroppedFrames 	738
scalar Forest.networkOne[1].nic.mac 	nbMissedAcks 	0
scalar Forest.networkOne[1].nic.mac 	nbRecvdAcks 	0
scalar Forest.networkOne[1].nic.mac 	nbTxAcks 	0
scalar Forest.networkOne[1].nic.mac 	nbDuplicates 	0
scalar Forest.networkOne[1].nic.mac 	meanBackoff 	0.002733037037037
scalar Forest.networkOne[1].nic.mac 	nbBackoffs 	11070
scalar Forest.networkOne[1].nic.mac 	backoffDurations 	30.254719999999
scalar Forest.networkOne[1].nic.phy 	nbFramesWithInterference 	18048
scalar Forest.networkOne[1].nic.phy 	nbFramesWithoutInterference 	126552
scalar Forest.networkOne[1].nic.phy 	nbFramesWithInterferencePartial 	6584
scalar Forest.networkOne[1].nic.phy 	nbFramesWithoutInterferencePartial 	1580
scalar Forest.networkOne[1].nic.phy 	nbFramesWithInterferenceDropped 	5843
scalar Forest.networkOne[1].nic.phy 	nbFramesWithoutInterferenceDropped 	21610
scalar Forest.networkOne[1].netwl 	nbDataPacketsForwarded 	2483
scalar Forest.networkOne[1].netwl 	nbDataPacketsReceived 	0
scalar Forest.networkOne[1].netwl 	nbDataPacketsSent 	2500
scalar Forest.networkOne[1].netwl 	nbDuplicatedFloodsReceived 	25419
scalar Forest.networkOne[1].netwl 	nbFloodsSent 	0
scalar Forest.networkOne[1].netwl 	nbPureUnicastSent 	2500
scalar Forest.networkOne[1].netwl 	nbRouteFloodsSent 	0
scalar Forest.networkOne[1].netwl 	nbRouteFloodsReceived 	3
scalar Forest.networkOne[1].netwl 	nbUnicastFloodForwarded 	2480
scalar Forest.networkOne[1].netwl 	nbPureUnicastForwarded 	0
scalar Forest.networkOne[1].netwl 	nbGetRouteFailures 	0
scalar Forest.networkOne[1].netwl 	nbRoutesRecorded 	1
scalar Forest.networkOne[1].netwl 	meanNbHops 	-nan
scalar Forest.networkOne[1].tranl 	nbAggrPktReceived 	0
scalar Forest.networkOne[1].tranl 	"nbAggrPktSentDown " 	0
scalar Forest.networkOne[1].appl 	"activity duration" 	-1
attr unit  s
scalar Forest.networkOne[1].appl 	firstPacketGeneration 	-1
attr unit  s
scalar Forest.networkOne[1].appl 	lastPacketReception 	-2
attr unit  s
scalar Forest.networkOne[1].appl 	nbPacketsSent 	2500
scalar Forest.networkOne[1].appl 	nbPacketsReceived 	0
statistic Forest.networkOne[1].appl 	latency
field count 0
field mean 0
field stddev -nan
field sum 0
field sqrsum 0
field min 0
field max 0
scalar Forest.networkOne[1].batteryStats 	nominal 	10800000
attr unit  mW-s
scalar Forest.networkOne[1].batteryStats 	total 	143396.5512856
attr unit  mW-s
scalar Forest.networkOne[1].batteryStats 	lifetime 	-1
attr unit  s
scalar Forest.networkOne[1].batteryStats 	"Mean power consumption" 	28.621076057089
attr unit  mW
scalar Forest.networkOne[1].batteryStats 	"num devices" 	1
scalar Forest.networkOne[1].batteryStats 	"physical layer" 	0
scalar Forest.networkOne[1].batteryStats 	"device total (mWs)" 	143396.55128381
scalar Forest.networkOne[1].batteryStats 	account 	0
scalar Forest.networkOne[1].batteryStats 	"energy (mWs)" 	0.15544178889694
scalar Forest.networkOne[1].batteryStats 	"time (s)" 	2467.3299824911
scalar Forest.networkOne[1].batteryStats 	"account 0" 	0.15544178889694
scalar Forest.networkOne[1].batteryStats 	account 	1
scalar Forest.networkOne[1].batteryStats 	"energy (mWs)" 	143056.28403242
scalar Forest.networkOne[1].batteryStats 	"time (s)" 	2536.458936745
scalar Forest.networkOne[1].batteryStats 	"account 1" 	143056.28403242
scalar Forest.networkOne[1].batteryStats 	account 	2
scalar Forest.networkOne[1].batteryStats 	"energy (mWs)" 	248.16965759997
scalar Forest.networkOne[1].batteryStats 	"time (s)" 	4.754208
scalar Forest.networkOne[1].batteryStats 	"account 2" 	248.16965759997
scalar Forest.networkOne[1].batteryStats 	account 	3
scalar Forest.networkOne[1].batteryStats 	"energy (mWs)" 	91.942151999992
scalar Forest.networkOne[1].batteryStats 	"time (s)" 	1.63018
scalar Forest.networkOne[1].batteryStats 	"account 3" 	91.942151999992
scalar Forest.networkOne[1].batteryStats 	account 	4
scalar Forest.networkOne[1].batteryStats 	"energy (mWs)" 	0
scalar Forest.networkOne[1].batteryStats 	"time (s)" 	0
scalar Forest.networkOne[1].batteryStats 	"account 4" 	0
scalar Forest.networkOne[2].nic.mac 	nbTxFrames 	4228
scalar Forest.networkOne[2].nic.mac 	nbRxFrames 	18132
scalar Forest.networkOne[2].nic.mac 	nbDroppedFrames 	757
scalar Forest.networkOne[2].nic.mac 	nbMissedAcks 	0
scalar Forest.networkOne[2].nic.mac 	nbRecvdAcks 	0
scalar Forest.networkOne[2].nic.mac 	nbTxAcks 	0
scalar Forest.networkOne[2].nic.mac 	nbDuplicates 	0
scalar Forest.networkOne[2].nic.mac 	meanBackoff 	0.0027456510440003
scalar Forest.networkOne[2].nic.mac 	nbBackoffs 	11159
scalar Forest.networkOne[2].nic.mac 	backoffDurations 	30.638719999999
scalar Forest.networkOne[2].nic.phy 	nbFramesWithInterference 	18844
scalar Forest.networkOne[2].nic.phy 	nbFramesWithoutInterference 	155660
scalar Forest.networkOne[2].nic.phy 	nbFramesWithInterferencePartial 	7466
scalar Forest.networkOne[2].nic.phy 	nbFramesWithoutInterferencePartial 	1735
scalar Forest.networkOne[2].nic.phy 	nbFramesWithInterferenceDropped 	5826
scalar Forest.networkOne[2].nic.phy 	nbFramesWithoutInterferenceDropped 	22955
scalar Forest.networkOne[2].netwl 	nbDataPacketsForwarded 	2485
scalar Forest.networkOne[2].netwl 	nbDataPacketsReceived 	0
scalar Forest.networkOne[2].netwl 	nbDataPacketsSent 	2500
scalar Forest.networkOne[2].netwl 	nbDuplicatedFloodsReceived 	27280
scalar Forest.networkOne[2].netwl 	nbFloodsSent 	0
scalar Forest.networkOne[2].netwl 	nbPureUnicastSent 	2500
scalar Forest.networkOne[2].netwl 	nbRouteFloodsSent 	0
scalar Forest.networkOne[2].netwl 	nbRouteFloodsReceived 	5
scalar Forest.networkOne[2].netwl 	nbUnicastFloodForwarded 	2480
scalar Forest.networkOne[2].netwl 	nbPureUnicastForwarded 	0
scalar Forest.networkOne[2].netwl 	nbGetRouteFailures 	0
scalar Forest.networkOne[2].netwl 	nbRoutesRecorded 	1
scalar Forest.networkOne[2].netwl 	meanNbHops 	-nan
scalar Forest.networkOne[2].tranl 	nbAggrPktReceived 	0
scalar Forest.networkOne[2].tranl 	"nbAggrPktSentDown " 	0
scalar Forest.networkOne[2].appl 	"activity duration" 	-1
attr unit  s
scalar Forest.networkOne[2].appl 	firstPacketGeneration 	-1
attr unit  s
scalar Forest.networkOne[2].appl 	lastPacketReception 	-2
attr unit  s
scalar Forest.networkOne[2].appl 	nbPacketsSent 	2500
scalar Forest.networkOne[2].appl 	nbPacketsReceived 	0
statistic Forest.networkOne[2].appl 	latency
field count 0
field mean 0
field stddev -nan
field sum 0
field sqrsum 0
field min 0
field max 0
scalar Forest.networkOne[2].batteryStats 	nominal 	10800000
attr unit  mW-s
scalar Forest.networkOne[2].batteryStats 	total 	282553.75170301
attr unit  mW-s
scalar Forest.networkOne[2].batteryStats 	lifetime 	-1
attr unit  s
scalar Forest.networkOne[2].batteryStats 	"Mean power consumption" 	56.396003566367
attr unit  mW
scalar Forest.networkOne[2].batteryStats 	"num devices" 	1
scalar Forest.networkOne[2].batteryStats 	"physical layer" 	0
scalar Forest.networkOne[2].batteryStats 	"device total (mWs)" 	282553.75170124
scalar Forest.networkOne[2].batteryStats 	account 	0
scalar Forest.networkOne[2].batteryStats 	"energy (mWs)" 	4.5893367702e-08
scalar Forest.networkOne[2].batteryStats 	"time (s)" 	0.000728466154
scalar Forest.networkOne[2].batteryStats 	"account 0" 	4.5893367702e-08
scalar Forest.networkOne[2].batteryStats 	account 	1
scalar Forest.networkOne[2].batteryStats 	"energy (mWs)" 	282215.05969932
scalar Forest.networkOne[2].batteryStats 	"time (s)" 	5003.8131152361
scalar Forest.networkOne[2].batteryStats 	"account 1" 	282215.05969932
scalar Forest.networkOne[2].batteryStats 	account 	2
scalar Forest.networkOne[2].batteryStats 	"energy (mWs)" 	247.12584206674
scalar Forest.networkOne[2].batteryStats 	"time (s)" 	4.734211533846
scalar Forest.networkOne[2].batteryStats 	"account 2" 	247.12584206674
scalar Forest.networkOne[2].batteryStats 	account 	3
scalar Forest.networkOne[2].batteryStats 	"energy (mWs)" 	91.566159801592
scalar Forest.networkOne[2].batteryStats 	"time (s)" 	1.625252
scalar Forest.networkOne[2].batteryStats 	"account 3" 	91.566159801592
scalar Forest.networkOne[2].batteryStats 	account 	4
scalar Forest.networkOne[2].batteryStats 	"energy (mWs)" 	0
scalar Forest.networkOne[2].batteryStats 	"time (s)" 	0
scalar Forest.networkOne[2].batteryStats 	"account 4" 	0
scalar Forest.networkOne[3].nic.mac 	nbTxFrames 	4228
scalar Forest.networkOne[3].nic.mac 	nbRxFrames 	18951
scalar Forest.networkOne[3].nic.mac 	nbDroppedFrames 	752
scalar Forest.networkOne[3].nic.mac 	nbMissedAcks 	0
scalar Forest.networkOne[3].nic.mac 	nbRecvdAcks 	0
scalar Forest.networkOne[3].nic.mac 	nbTxAcks 	0
scalar Forest.networkOne[3].nic.mac 	nbDuplicates 	0
scalar Forest.networkOne[3].nic.mac 	meanBackoff 	0.0027131112916328
scalar Forest.networkOne[3].nic.mac 	nbBackoffs 	11079
scalar Forest.networkOne[3].nic.mac 	backoffDurations 	30.058559999999
scalar Forest.networkOne[3].nic.phy 	nbFramesWithInterference 	18742
scalar Forest.networkOne[3].nic.phy 	nbFramesWithoutInterference 	156264
scalar Forest.networkOne[3].nic.phy 	nbFramesWithInterferencePartial 	8626
scalar Forest.networkOne[3].nic.phy 	nbFramesWithoutInterferencePartial 	1491
scalar Forest.networkOne[3].nic.phy 	nbFramesWithInterferenceDropped 	6020
scalar Forest.networkOne[3].nic.phy 	nbFramesWithoutInterferenceDropped 	20580
scalar Forest.networkOne[3].netwl 	nbDataPacketsForwarded 	2480
scalar Forest.networkOne[3].netwl 	nbDataPacketsReceived 	0
scalar Forest.networkOne[3].netwl 	nbDataPacketsSent 	2500
scalar Forest.networkOne[3].netwl 	nbDuplicatedFloodsReceived 	27875
scalar Forest.networkOne[3].netwl 	nbFloodsSent 	0
scalar Forest.networkOne[3].netwl 	nbPureUnicastSent 	2500
scalar Forest.networkOne[3].netwl 	nbRouteFloodsSent 	0
scalar Forest.networkOne[3].netwl 	nbRouteFloodsReceived 	3
scalar Forest.networkOne[3].netwl 	nbUnicastFloodForwarded 	2477
scalar Forest.networkOne[3].netwl 	nbPureUnicastForwarded 	0
scalar Forest.networkOne[3].netwl 	nbGetRouteFailures 	0
scalar Forest.networkOne[3].netwl 	nbRoutesRecorded 	1
scalar Forest.networkOne[3].netwl 	meanNbHops 	-nan
scalar Forest.networkOne[3].tranl 	nbAggrPktReceived 	0
scalar Forest.networkOne[3].tranl 	"nbAggrPktSentDown " 	0
scalar Forest.networkOne[3].appl 	"activity duration" 	-1
attr unit  s
scalar Forest.networkOne[3].appl 	firstPacketGeneration 	-1
attr unit  s
scalar Forest.networkOne[3].appl 	lastPacketReception 	-2
attr unit  s
scalar Forest.networkOne[3].appl 	nbPacketsSent 	2500
scalar Forest.networkOne[3].appl 	nbPacketsReceived 	0
statistic Forest.networkOne[3].appl 	latency
field count 0
field mean 0
field stddev -nan
field sum 0
field sqrsum 0
field min 0
field max 0
scalar Forest.networkOne[3].batteryStats 	nominal 	10800000
attr unit  mW-s
scalar Forest.networkOne[3].batteryStats 	total 	140360.32767896
attr unit  mW-s
scalar Forest.networkOne[3].batteryStats 	lifetime 	-1
attr unit  s
scalar Forest.networkOne[3].batteryStats 	"Mean power consumption" 	28.015064364389
attr unit  mW
scalar Forest.networkOne[3].batteryStats 	"num devices" 	1
scalar Forest.networkOne[3].batteryStats 	"physical layer" 	0
scalar Forest.networkOne[3].batteryStats 	"device total (mWs)" 	140360.32767716
scalar Forest.networkOne[3].batteryStats 	account 	0
scalar Forest.networkOne[3].batteryStats 	"energy (mWs)" 	0.15883340838054
scalar Forest.networkOne[3].batteryStats 	"time (s)" 	2521.1652123895
scalar Forest.networkOne[3].batteryStats 	"account 0" 	0.15883340838054
scalar Forest.networkOne[3].batteryStats 	account 	1
scalar Forest.networkOne[3].batteryStats 	"energy (mWs)" 	140021.41910135
scalar Forest.networkOne[3].batteryStats 	"time (s)" 	2482.6492748466
scalar Forest.networkOne[3].batteryStats 	"account 1" 	140021.41910135
scalar Forest.networkOne[3].batteryStats 	account 	2
scalar Forest.networkOne[3].batteryStats 	"energy (mWs)" 	247.17576959997
scalar Forest.networkOne[3].batteryStats 	"time (s)" 	4.735168
scalar Forest.networkOne[3].batteryStats 	"account 2" 	247.17576959997
scalar Forest.networkOne[3].batteryStats 	account 	3
scalar Forest.networkOne[3].batteryStats 	"energy (mWs)" 	91.573972799992
scalar Forest.networkOne[3].batteryStats 	"time (s)" 	1.623652
scalar Forest.networkOne[3].batteryStats 	"account 3" 	91.573972799992
scalar Forest.networkOne[3].batteryStats 	account 	4
scalar Forest.networkOne[3].batteryStats 	"energy (mWs)" 	0
scalar Forest.networkOne[3].batteryStats 	"time (s)" 	0
scalar Forest.networkOne[3].batteryStats 	"account 4" 	0
scalar Forest.networkOne[4].nic.mac 	nbTxFrames 	5343
scalar Forest.networkOne[4].nic.mac 	nbRxFrames 	19729
scalar Forest.networkOne[4].nic.mac 	nbDroppedFrames 	693
scalar Forest.networkOne[4].nic.mac 	nbMissedAcks 	0
scalar Forest.networkOne[4].nic.mac 	nbRecvdAcks 	0
scalar Forest.networkOne[4].nic.mac 	nbTxAcks 	0
scalar Forest.networkOne[4].nic.mac 	nbDuplicates 	0
scalar Forest.networkOne[4].nic.mac 	meanBackoff 	0.0025471757735352
scalar Forest.networkOne[4].nic.mac 	nbBackoffs 	12152
scalar Forest.networkOne[4].nic.mac 	backoffDurations 	30.953279999999
scalar Forest.networkOne[4].nic.phy 	nbFramesWithInterference 	18180
scalar Forest.networkOne[4].nic.phy 	nbFramesWithoutInterference 	162412
scalar Forest.networkOne[4].nic.phy 	nbFramesWithInterferencePartial 	9694
scalar Forest.networkOne[4].nic.phy 	nbFramesWithoutInterferencePartial 	1504
scalar Forest.networkOne[4].nic.phy 	nbFramesWithInterferenceDropped 	5784
scalar Forest.networkOne[4].nic.phy 	nbFramesWithoutInterferenceDropped 	20403
scalar Forest.networkOne[4].netwl 	nbDataPacketsForwarded 	3536
scalar Forest.networkOne[4].netwl 	nbDataPacketsReceived 	0
scalar Forest.networkOne[4].netwl 	nbDataPacketsSent 	2500
scalar Forest.networkOne[4].netwl 	nbDuplicatedFloodsReceived 	27479
scalar Forest.networkOne[4].netwl 	nbFloodsSent 	0
scalar Forest.networkOne[4].netwl 	nbPureUnicastSent 	2500
scalar Forest.networkOne[4].netwl 	nbRouteFloodsSent 	0
scalar Forest.networkOne[4].netwl 	nbRouteFloodsReceived 	3
scalar Forest.networkOne[4].netwl 	nbUnicastFloodForwarded 	2480
scalar Forest.networkOne[4].netwl 	nbPureUnicastForwarded 	1053
scalar Forest.networkOne[4].netwl 	nbGetRouteFailures 	0
scalar Forest.networkOne[4].netwl 	nbRoutesRecorded 	1
scalar Forest.networkOne[4].netwl 	meanNbHops 	-nan
scalar Forest.networkOne[4].tranl 	nbAggrPktReceived 	0
scalar Forest.networkOne[4].tranl 	"nbAggrPktSentDown " 	0
scalar Forest.networkOne[4].appl 	"activity duration" 	-1
attr unit  s
scalar Forest.networkOne[4].appl 	firstPacketGeneration 	-1
attr unit  s
scalar Forest.networkOne[4].appl 	lastPacketReception 	-2
attr unit  s
scalar Forest.networkOne[4].appl 	nbPacketsSent 	2500
scalar Forest.networkOne[4].appl 	nbPacketsReceived 	0
statistic Forest.networkOne[4].appl 	latency
field count 0
field mean 0
field stddev -nan
field sum 0
field sqrsum 0
field min 0
field max 0
scalar Forest.networkOne[4].batteryStats 	nominal 	10800000
attr unit  mW-s
scalar Forest.networkOne[4].batteryStats 	total 	143630.32020632
attr unit  mW-s
scalar Forest.networkOne[4].batteryStats 	lifetime 	-1
attr unit  s
scalar Forest.networkOne[4].batteryStats 	"Mean power consumption" 	28.667734906271
attr unit  mW
scalar Forest.networkOne[4].batteryStats 	"num devices" 	1
scalar Forest.networkOne[4].batteryStats 	"physical layer" 	0
scalar Forest.networkOne[4].batteryStats 	"device total (mWs)" 	143630.32020399
scalar Forest.networkOne[4].batteryStats 	account 	0
scalar Forest.networkOne[4].batteryStats 	"energy (mWs)" 	0.15517489433521
scalar Forest.networkOne[4].batteryStats 	"time (s)" 	2463.0935608764
scalar Forest.networkOne[4].batteryStats 	"account 0" 	0.15517489433521
scalar Forest.networkOne[4].batteryStats 	account 	1
scalar Forest.networkOne[4].batteryStats 	"energy (mWs)" 	143202.0797027
scalar Forest.networkOne[4].batteryStats 	"time (s)" 	2539.0439663597
scalar Forest.networkOne[4].batteryStats 	"account 1" 	143202.0797027
scalar Forest.networkOne[4].batteryStats 	account 	2
scalar Forest.networkOne[4].batteryStats 	"energy (mWs)" 	312.36312959999
scalar Forest.networkOne[4].batteryStats 	"time (s)" 	5.983968
scalar Forest.networkOne[4].batteryStats 	"account 2" 	312.36312959999
scalar Forest.networkOne[4].batteryStats 	account 	3
scalar Forest.networkOne[4].batteryStats 	"energy (mWs)" 	115.72219679999
scalar Forest.networkOne[4].batteryStats 	"time (s)" 	2.051812
scalar Forest.networkOne[4].batteryStats 	"account 3" 	115.72219679999
scalar Forest.networkOne[4].batteryStats 	account 	4
scalar Forest.networkOne[4].batteryStats 	"energy (mWs)" 	0
scalar Forest.networkOne[4].batteryStats 	"time (s)" 	0
scalar Forest.networkOne[4].batteryStats 	"account 4" 	0
scalar Forest.networkOne[5].nic.mac 	nbTxFrames 	4258
scalar Forest.networkOne[5].nic.mac 	nbRxFrames 	17887
scalar Forest.networkOne[5].nic.mac 	nbDroppedFrames 	725
scalar Forest.networkOne[5].nic.mac 	nbMissedAcks 	0
scalar Forest.networkOne[5].nic.mac 	nbRecvdAcks 	0
scalar Forest.networkOne[5].nic.mac 	nbTxAcks 	0
scalar Forest.networkOne[5].nic.mac 	nbDuplicates 	0
scalar Forest.networkOne[5].nic.mac 	meanBackoff 	0.0026932660418168
scalar Forest.networkOne[5].nic.mac 	nbBackoffs 	11096
scalar Forest.networkOne[5].nic.mac 	backoffDurations 	29.884479999999
scalar Forest.networkOne[5].nic.phy 	nbFramesWithInterference 	17281
scalar Forest.networkOne[5].nic.phy 	nbFramesWithoutInterference 	162016
scalar Forest.networkOne[5].nic.phy 	nbFramesWithInterferencePartial 	10205
scalar Forest.networkOne[5].nic.phy 	nbFramesWithoutInterferencePartial 	1435
scalar Forest.networkOne[5].nic.phy 	nbFramesWithInterferenceDropped 	5939
scalar Forest.networkOne[5].nic.phy 	nbFramesWithoutInterferenceDropped 	20120
scalar Forest.networkOne[5].netwl 	nbDataPacketsForwarded 	2483
scalar Forest.networkOne[5].netwl 	nbDataPacketsReceived 	0
scalar Forest.networkOne[5].netwl 	nbDataPacketsSent 	2500
scalar Forest.networkOne[5].netwl 	nbDuplicatedFloodsReceived 	26631
scalar Forest.networkOne[5].netwl 	nbFloodsSent 	0
scalar Forest.networkOne[5].netwl 	nbPureUnicastSent 	2500
scalar Forest.networkOne[5].netwl 	nbRouteFloodsSent 	0
scalar Forest.networkOne[5].netwl 	nbRouteFloodsReceived 	3
scalar Forest.networkOne[5].netwl 	nbUnicastFloodForwarded 	2480
scalar Forest.networkOne[5].netwl 	nbPureUnicastForwarded 	0
scalar Forest.networkOne[5].netwl 	nbGetRouteFailures 	0
scalar Forest.networkOne[5].netwl 	nbRoutesRecorded 	1
scalar Forest.networkOne[5].netwl 	meanNbHops 	-nan
scalar Forest.networkOne[5].tranl 	nbAggrPktReceived 	0
scalar Forest.networkOne[5].tranl 	"nbAggrPktSentDown " 	0
scalar Forest.networkOne[5].appl 	"activity duration" 	-1
attr unit  s
scalar Forest.networkOne[5].appl 	firstPacketGeneration 	-1
attr unit  s
scalar Forest.networkOne[5].appl 	lastPacketReception 	-2
attr unit  s
scalar Forest.networkOne[5].appl 	nbPacketsSent 	2500
scalar Forest.networkOne[5].appl 	nbPacketsReceived 	0
statistic Forest.networkOne[5].appl 	latency
field count 0
field mean 0
field stddev -nan
field sum 0
field sqrsum 0
field min 0
field max 0
scalar Forest.networkOne[5].batteryStats 	nominal 	10800000
attr unit  mW-s
scalar Forest.networkOne[5].batteryStats 	total 	145597.09852701
attr unit  mW-s
scalar Forest.networkOne[5].batteryStats 	lifetime 	-1
attr unit  s
scalar Forest.networkOne[5].batteryStats 	"Mean power consumption" 	29.06029184993
attr unit  mW
scalar Forest.networkOne[5].batteryStats 	"num devices" 	1
scalar Forest.networkOne[5].batteryStats 	"physical layer" 	0
scalar Forest.networkOne[5].batteryStats 	"device total (mWs)" 	145597.09852526
scalar Forest.networkOne[5].batteryStats 	account 	0
scalar Forest.networkOne[5].batteryStats 	"energy (mWs)" 	0.15298365975423
scalar Forest.networkOne[5].batteryStats 	"time (s)" 	2428.3120595909
scalar Forest.networkOne[5].batteryStats 	"account 0" 	0.15298365975423
scalar Forest.networkOne[5].batteryStats 	account 	1
scalar Forest.networkOne[5].batteryStats 	"energy (mWs)" 	145255.7921512
scalar Forest.networkOne[5].batteryStats 	"time (s)" 	2575.4573076452
scalar Forest.networkOne[5].batteryStats 	"account 1" 	145255.7921512
scalar Forest.networkOne[5].batteryStats 	account 	2
scalar Forest.networkOne[5].batteryStats 	"energy (mWs)" 	248.92968959997
scalar Forest.networkOne[5].batteryStats 	"time (s)" 	4.768768
scalar Forest.networkOne[5].batteryStats 	"account 2" 	248.92968959997
scalar Forest.networkOne[5].batteryStats 	account 	3
scalar Forest.networkOne[5].batteryStats 	"energy (mWs)" 	92.223700799991
scalar Forest.networkOne[5].batteryStats 	"time (s)" 	1.635172
scalar Forest.networkOne[5].batteryStats 	"account 3" 	92.223700799991
scalar Forest.networkOne[5].batteryStats 	account 	4
scalar Forest.networkOne[5].batteryStats 	"energy (mWs)" 	0
scalar Forest.networkOne[5].batteryStats 	"time (s)" 	0
scalar Forest.networkOne[5].batteryStats 	"account 4" 	0
scalar Forest.networkOne[6].nic.mac 	nbTxFrames 	4283
scalar Forest.networkOne[6].nic.mac 	nbRxFrames 	16497
scalar Forest.networkOne[6].nic.mac 	nbDroppedFrames 	700
scalar Forest.networkOne[6].nic.mac 	nbMissedAcks 	0
scalar Forest.networkOne[6].nic.mac 	nbRecvdAcks 	0
scalar Forest.networkOne[6].nic.mac 	nbTxAcks 	0
scalar Forest.networkOne[6].nic.mac 	nbDuplicates 	0
scalar Forest.networkOne[6].nic.mac 	meanBackoff 	0.0027066415026512
scalar Forest.networkOne[6].nic.mac 	nbBackoffs 	11127
scalar Forest.networkOne[6].nic.mac 	backoffDurations 	30.116799999999
scalar Forest.networkOne[6].nic.phy 	nbFramesWithInterference 	16228
scalar Forest.networkOne[6].nic.phy 	nbFramesWithoutInterference 	151932
scalar Forest.networkOne[6].nic.phy 	nbFramesWithInterferencePartial 	10230
scalar Forest.networkOne[6].nic.phy 	nbFramesWithoutInterferencePartial 	1478
scalar Forest.networkOne[6].nic.phy 	nbFramesWithInterferenceDropped 	5792
scalar Forest.networkOne[6].nic.phy 	nbFramesWithoutInterferenceDropped 	20345
scalar Forest.networkOne[6].netwl 	nbDataPacketsForwarded 	2483
scalar Forest.networkOne[6].netwl 	nbDataPacketsReceived 	0
scalar Forest.networkOne[6].netwl 	nbDataPacketsSent 	2500
scalar Forest.networkOne[6].netwl 	nbDuplicatedFloodsReceived 	25061
scalar Forest.networkOne[6].netwl 	nbFloodsSent 	0
scalar Forest.networkOne[6].netwl 	nbPureUnicastSent 	2500
scalar Forest.networkOne[6].netwl 	nbRouteFloodsSent 	0
scalar Forest.networkOne[6].netwl 	nbRouteFloodsReceived 	3
scalar Forest.networkOne[6].netwl 	nbUnicastFloodForwarded 	2480
scalar Forest.networkOne[6].netwl 	nbPureUnicastForwarded 	0
scalar Forest.networkOne[6].netwl 	nbGetRouteFailures 	0
scalar Forest.networkOne[6].netwl 	nbRoutesRecorded 	1
scalar Forest.networkOne[6].netwl 	meanNbHops 	-nan
scalar Forest.networkOne[6].tranl 	nbAggrPktReceived 	0
scalar Forest.networkOne[6].tranl 	"nbAggrPktSentDown " 	0
scalar Forest.networkOne[6].appl 	"activity duration" 	-1
attr unit  s
scalar Forest.networkOne[6].appl 	firstPacketGeneration 	-1
attr unit  s
scalar Forest.networkOne[6].appl 	lastPacketReception 	-2
attr unit  s
scalar Forest.networkOne[6].appl 	nbPacketsSent 	2500
scalar Forest.networkOne[6].appl 	nbPacketsReceived 	0
statistic Forest.networkOne[6].appl 	latency
field count 0
field mean 0
field stddev -nan
field sum 0
field sqrsum 0
field min 0
field max 0
scalar Forest.networkOne[6].batteryStats 	nominal 	10800000
attr unit  mW-s
scalar Forest.networkOne[6].batteryStats 	total 	142288.23791004
attr unit  mW-s
scalar Forest.networkOne[6].batteryStats 	lifetime 	-1
attr unit  s
scalar Forest.networkOne[6].batteryStats 	"Mean power consumption" 	28.39986347469
attr unit  mW
scalar Forest.networkOne[6].batteryStats 	"num devices" 	1
scalar Forest.networkOne[6].batteryStats 	"physical layer" 	0
scalar Forest.networkOne[6].batteryStats 	"device total (mWs)" 	142288.23790831
scalar Forest.networkOne[6].batteryStats 	account 	0
scalar Forest.networkOne[6].batteryStats 	"energy (mWs)" 	0.15667959993113
scalar Forest.networkOne[6].batteryStats 	"time (s)" 	2486.9777766846
scalar Forest.networkOne[6].batteryStats 	"account 0" 	0.15667959993113
scalar Forest.networkOne[6].batteryStats 	account 	1
scalar Forest.networkOne[6].batteryStats 	"energy (mWs)" 	141944.92145751
scalar Forest.networkOne[6].batteryStats 	"time (s)" 	2516.7539265515
scalar Forest.networkOne[6].batteryStats 	"account 1" 	141944.92145751
scalar Forest.networkOne[6].batteryStats 	account 	2
scalar Forest.networkOne[6].batteryStats 	"energy (mWs)" 	250.39463039997
scalar Forest.networkOne[6].batteryStats 	"time (s)" 	4.796832
scalar Forest.networkOne[6].batteryStats 	"account 2" 	250.39463039997
scalar Forest.networkOne[6].batteryStats 	account 	3
scalar Forest.networkOne[6].batteryStats 	"energy (mWs)" 	92.765140799991
scalar Forest.networkOne[6].batteryStats 	"time (s)" 	1.644772
scalar Forest.networkOne[6].batteryStats 	"account 3" 	92.765140799991
scalar Forest.networkOne[6].batteryStats 	account 	4
scalar Forest.networkOne[6].batteryStats 	"energy (mWs)" 	0
scalar Forest.networkOne[6].batteryStats 	"time (s)" 	0
scalar Forest.networkOne[6].batteryStats 	"account 4" 	0
scalar Forest.networkOne[7].nic.mac 	nbTxFrames 	4319
scalar Forest.networkOne[7].nic.mac 	nbRxFrames 	15493
scalar Forest.networkOne[7].nic.mac 	nbDroppedFrames 	664
scalar Forest.networkOne[7].nic.mac 	nbMissedAcks 	0
scalar Forest.networkOne[7].nic.mac 	nbRecvdAcks 	0
scalar Forest.networkOne[7].nic.mac 	nbTxAcks 	0
scalar Forest.networkOne[7].nic.mac 	nbDuplicates 	0
scalar Forest.networkOne[7].nic.mac 	meanBackoff 	0.0027044005461993
scalar Forest.networkOne[7].nic.mac 	nbBackoffs 	10985
scalar Forest.networkOne[7].nic.mac 	backoffDurations 	29.707839999999
scalar Forest.networkOne[7].nic.phy 	nbFramesWithInterference 	15139
scalar Forest.networkOne[7].nic.phy 	nbFramesWithoutInterference 	136929
scalar Forest.networkOne[7].nic.phy 	nbFramesWithInterferencePartial 	9363
scalar Forest.networkOne[7].nic.phy 	nbFramesWithoutInterferencePartial 	1536
scalar Forest.networkOne[7].nic.phy 	nbFramesWithInterferenceDropped 	5616
scalar Forest.networkOne[7].nic.phy 	nbFramesWithoutInterferenceDropped 	20907
scalar Forest.networkOne[7].netwl 	nbDataPacketsForwarded 	2483
scalar Forest.networkOne[7].netwl 	nbDataPacketsReceived 	0
scalar Forest.networkOne[7].netwl 	nbDataPacketsSent 	2500
scalar Forest.networkOne[7].netwl 	nbDuplicatedFloodsReceived 	23518
scalar Forest.networkOne[7].netwl 	nbFloodsSent 	0
scalar Forest.networkOne[7].netwl 	nbPureUnicastSent 	2500
scalar Forest.networkOne[7].netwl 	nbRouteFloodsSent 	0
scalar Forest.networkOne[7].netwl 	nbRouteFloodsReceived 	3
scalar Forest.networkOne[7].netwl 	nbUnicastFloodForwarded 	2480
scalar Forest.networkOne[7].netwl 	nbPureUnicastForwarded 	0
scalar Forest.networkOne[7].netwl 	nbGetRouteFailures 	0
scalar Forest.networkOne[7].netwl 	nbRoutesRecorded 	1
scalar Forest.networkOne[7].netwl 	meanNbHops 	-nan
scalar Forest.networkOne[7].tranl 	nbAggrPktReceived 	0
scalar Forest.networkOne[7].tranl 	"nbAggrPktSentDown " 	0
scalar Forest.networkOne[7].appl 	"activity duration" 	-1
attr unit  s
scalar Forest.networkOne[7].appl 	firstPacketGeneration 	-1
attr unit  s
scalar Forest.networkOne[7].appl 	lastPacketReception 	-2
attr unit  s
scalar Forest.networkOne[7].appl 	nbPacketsSent 	2500
scalar Forest.networkOne[7].appl 	nbPacketsReceived 	0
statistic Forest.networkOne[7].appl 	latency
field count 0
field mean 0
field stddev -nan
field sum 0
field sqrsum 0
field min 0
field max 0
scalar Forest.networkOne[7].batteryStats 	nominal 	10800000
attr unit  mW-s
scalar Forest.networkOne[7].batteryStats 	total 	143757.69286676
attr unit  mW-s
scalar Forest.networkOne[7].batteryStats 	lifetime 	-1
attr unit  s
scalar Forest.networkOne[7].batteryStats 	"Mean power consumption" 	28.693157711558
attr unit  mW
scalar Forest.networkOne[7].batteryStats 	"num devices" 	1
scalar Forest.networkOne[7].batteryStats 	"physical layer" 	0
scalar Forest.networkOne[7].batteryStats 	"device total (mWs)" 	143757.69286494
scalar Forest.networkOne[7].batteryStats 	account 	0
scalar Forest.networkOne[7].batteryStats 	"energy (mWs)" 	0.15503799678527
scalar Forest.networkOne[7].batteryStats 	"time (s)" 	2460.9205838932
scalar Forest.networkOne[7].batteryStats 	"account 0" 	0.15503799678527
scalar Forest.networkOne[7].batteryStats 	account 	1
scalar Forest.networkOne[7].batteryStats 	"energy (mWs)" 	143411.49701894
scalar Forest.networkOne[7].batteryStats 	"time (s)" 	2542.7570393429
scalar Forest.networkOne[7].batteryStats 	"account 1" 	143411.49701894
scalar Forest.networkOne[7].batteryStats 	account 	2
scalar Forest.networkOne[7].batteryStats 	"energy (mWs)" 	252.49599359997
scalar Forest.networkOne[7].batteryStats 	"time (s)" 	4.837088
scalar Forest.networkOne[7].batteryStats 	"account 2" 	252.49599359997
scalar Forest.networkOne[7].batteryStats 	account 	3
scalar Forest.networkOne[7].batteryStats 	"energy (mWs)" 	93.544814399991
scalar Forest.networkOne[7].batteryStats 	"time (s)" 	1.658596
scalar Forest.networkOne[7].batteryStats 	"account 3" 	93.544814399991
scalar Forest.networkOne[7].batteryStats 	account 	4
scalar Forest.networkOne[7].batteryStats 	"energy (mWs)" 	0
scalar Forest.networkOne[7].batteryStats 	"time (s)" 	0
scalar Forest.networkOne[7].batteryStats 	"account 4" 	0
scalar Forest.networkOne[8].nic.mac 	nbTxFrames 	4307
scalar Forest.networkOne[8].nic.mac 	nbRxFrames 	13750
scalar Forest.networkOne[8].nic.mac 	nbDroppedFrames 	612
scalar Forest.networkOne[8].nic.mac 	nbMissedAcks 	0
scalar Forest.networkOne[8].nic.mac 	nbRecvdAcks 	0
scalar Forest.networkOne[8].nic.mac 	nbTxAcks 	0
scalar Forest.networkOne[8].nic.mac 	nbDuplicates 	0
scalar Forest.networkOne[8].nic.mac 	meanBackoff 	0.0026539602304404
scalar Forest.networkOne[8].nic.mac 	nbBackoffs 	10762
scalar Forest.networkOne[8].nic.mac 	backoffDurations 	28.561919999999
scalar Forest.networkOne[8].nic.phy 	nbFramesWithInterference 	13553
scalar Forest.networkOne[8].nic.phy 	nbFramesWithoutInterference 	114693
scalar Forest.networkOne[8].nic.phy 	nbFramesWithInterferencePartial 	7828
scalar Forest.networkOne[8].nic.phy 	nbFramesWithoutInterferencePartial 	1544
scalar Forest.networkOne[8].nic.phy 	nbFramesWithInterferenceDropped 	5612
scalar Forest.networkOne[8].nic.phy 	nbFramesWithoutInterferenceDropped 	20437
scalar Forest.networkOne[8].netwl 	nbDataPacketsForwarded 	2419
scalar Forest.networkOne[8].netwl 	nbDataPacketsReceived 	0
scalar Forest.networkOne[8].netwl 	nbDataPacketsSent 	2500
scalar Forest.networkOne[8].netwl 	nbDuplicatedFloodsReceived 	20934
scalar Forest.networkOne[8].netwl 	nbFloodsSent 	0
scalar Forest.networkOne[8].netwl 	nbPureUnicastSent 	2500
scalar Forest.networkOne[8].netwl 	nbRouteFloodsSent 	0
scalar Forest.networkOne[8].netwl 	nbRouteFloodsReceived 	3
scalar Forest.networkOne[8].netwl 	nbUnicastFloodForwarded 	2416
scalar Forest.networkOne[8].netwl 	nbPureUnicastForwarded 	0
scalar Forest.networkOne[8].netwl 	nbGetRouteFailures 	0
scalar Forest.networkOne[8].netwl 	nbRoutesRecorded 	1
scalar Forest.networkOne[8].netwl 	meanNbHops 	-nan
scalar Forest.networkOne[8].tranl 	nbAggrPktReceived 	0
scalar Forest.networkOne[8].tranl 	"nbAggrPktSentDown " 	0
scalar Forest.networkOne[8].appl 	"activity duration" 	-1
attr unit  s
scalar Forest.networkOne[8].appl 	firstPacketGeneration 	-1
attr unit  s
scalar Forest.networkOne[8].appl 	lastPacketReception 	-2
attr unit  s
scalar Forest.networkOne[8].appl 	nbPacketsSent 	2500
scalar Forest.networkOne[8].appl 	nbPacketsReceived 	0
statistic Forest.networkOne[8].appl 	latency
field count 0
field mean 0
field stddev -nan
field sum 0
field sqrsum 0
field min 0
field max 0
scalar Forest.networkOne[8].batteryStats 	nominal 	10800000
attr unit  mW-s
scalar Forest.networkOne[8].batteryStats 	total 	137582.76318267
attr unit  mW-s
scalar Forest.networkOne[8].batteryStats 	lifetime 	-1
attr unit  s
scalar Forest.networkOne[8].batteryStats 	"Mean power consumption" 	27.460679450741
attr unit  mW
scalar Forest.networkOne[8].batteryStats 	"num devices" 	1
scalar Forest.networkOne[8].batteryStats 	"physical layer" 	0
scalar Forest.networkOne[8].batteryStats 	"device total (mWs)" 	137582.76318084
scalar Forest.networkOne[8].batteryStats 	account 	0
scalar Forest.networkOne[8].batteryStats 	"energy (mWs)" 	0.16193559538228
scalar Forest.networkOne[8].batteryStats 	"time (s)" 	2570.4062759093
scalar Forest.networkOne[8].batteryStats 	"account 0" 	0.16193559538228
scalar Forest.networkOne[8].batteryStats 	account 	1
scalar Forest.networkOne[8].batteryStats 	"energy (mWs)" 	137237.52189644
scalar Forest.networkOne[8].batteryStats 	"time (s)" 	2433.2893953268
scalar Forest.networkOne[8].batteryStats 	"account 1" 	137237.52189644
scalar Forest.networkOne[8].batteryStats 	account 	2
scalar Forest.networkOne[8].batteryStats 	"energy (mWs)" 	251.79442559997
scalar Forest.networkOne[8].batteryStats 	"time (s)" 	4.823648
scalar Forest.networkOne[8].batteryStats 	"account 2" 	251.79442559997
scalar Forest.networkOne[8].batteryStats 	account 	3
scalar Forest.networkOne[8].batteryStats 	"energy (mWs)" 	93.284923199991
scalar Forest.networkOne[8].batteryStats 	"time (s)" 	1.653988
scalar Forest.networkOne[8].batteryStats 	"account 3" 	93.284923199991
scalar Forest.networkOne[8].batteryStats 	account 	4
scalar Forest.networkOne[8].batteryStats 	"energy (mWs)" 	0
scalar Forest.networkOne[8].batteryStats 	"time (s)" 	0
scalar Forest.networkOne[8].batteryStats 	"account 4" 	0
scalar Forest.networkOne[9].nic.mac 	nbTxFrames 	4223
scalar Forest.networkOne[9].nic.mac 	nbRxFrames 	17157
scalar Forest.networkOne[9].nic.mac 	nbDroppedFrames 	761
scalar Forest.networkOne[9].nic.mac 	nbMissedAcks 	0
scalar Forest.networkOne[9].nic.mac 	nbRecvdAcks 	0
scalar Forest.networkOne[9].nic.mac 	nbTxAcks 	0
scalar Forest.networkOne[9].nic.mac 	nbDuplicates 	0
scalar Forest.networkOne[9].nic.mac 	meanBackoff 	0.0027111111111111
scalar Forest.networkOne[9].nic.mac 	nbBackoffs 	11052
scalar Forest.networkOne[9].nic.mac 	backoffDurations 	29.963199999999
scalar Forest.networkOne[9].nic.phy 	nbFramesWithInterference 	17447
scalar Forest.networkOne[9].nic.phy 	nbFramesWithoutInterference 	127106
scalar Forest.networkOne[9].nic.phy 	nbFramesWithInterferencePartial 	7023
scalar Forest.networkOne[9].nic.phy 	nbFramesWithoutInterferencePartial 	1585
scalar Forest.networkOne[9].nic.phy 	nbFramesWithInterferenceDropped 	5834
scalar Forest.networkOne[9].nic.phy 	nbFramesWithoutInterferenceDropped 	21238
scalar Forest.networkOne[9].netwl 	nbDataPacketsForwarded 	2484
scalar Forest.networkOne[9].netwl 	nbDataPacketsReceived 	0
scalar Forest.networkOne[9].netwl 	nbDataPacketsSent 	2500
scalar Forest.networkOne[9].netwl 	nbDuplicatedFloodsReceived 	25249
scalar Forest.networkOne[9].netwl 	nbFloodsSent 	0
scalar Forest.networkOne[9].netwl 	nbPureUnicastSent 	2500
scalar Forest.networkOne[9].netwl 	nbRouteFloodsSent 	0
scalar Forest.networkOne[9].netwl 	nbRouteFloodsReceived 	3
scalar Forest.networkOne[9].netwl 	nbUnicastFloodForwarded 	2481
scalar Forest.networkOne[9].netwl 	nbPureUnicastForwarded 	0
scalar Forest.networkOne[9].netwl 	nbGetRouteFailures 	0
scalar Forest.networkOne[9].netwl 	nbRoutesRecorded 	1
scalar Forest.networkOne[9].netwl 	meanNbHops 	-nan
scalar Forest.networkOne[9].tranl 	nbAggrPktReceived 	0
scalar Forest.networkOne[9].tranl 	"nbAggrPktSentDown " 	0
scalar Forest.networkOne[9].appl 	"activity duration" 	-1
attr unit  s
scalar Forest.networkOne[9].appl 	firstPacketGeneration 	-1
attr unit  s
scalar Forest.networkOne[9].appl 	lastPacketReception 	-2
attr unit  s
scalar Forest.networkOne[9].appl 	nbPacketsSent 	2500
scalar Forest.networkOne[9].appl 	nbPacketsReceived 	0
statistic Forest.networkOne[9].appl 	latency
field count 0
field mean 0
field stddev -nan
field sum 0
field sqrsum 0
field min 0
field max 0
scalar Forest.networkOne[9].batteryStats 	nominal 	10800000
attr unit  mW-s
scalar Forest.networkOne[9].batteryStats 	total 	143637.16963323
attr unit  mW-s
scalar Forest.networkOne[9].batteryStats 	lifetime 	-1
attr unit  s
scalar Forest.networkOne[9].batteryStats 	"Mean power consumption" 	28.669102010059
attr unit  mW
scalar Forest.networkOne[9].batteryStats 	"num devices" 	1
scalar Forest.networkOne[9].batteryStats 	"physical layer" 	0
scalar Forest.networkOne[9].batteryStats 	"device total (mWs)" 	143637.16963143
scalar Forest.networkOne[9].batteryStats 	account 	0
scalar Forest.networkOne[9].batteryStats 	"energy (mWs)" 	0.15517312838131
scalar Forest.networkOne[9].batteryStats 	"time (s)" 	2463.065529862
scalar Forest.networkOne[9].batteryStats 	"account 0" 	0.15517312838131
scalar Forest.networkOne[9].batteryStats 	account 	1
scalar Forest.networkOne[9].batteryStats 	"energy (mWs)" 	143298.6653239
scalar Forest.networkOne[9].batteryStats 	"time (s)" 	2540.7564773741
scalar Forest.networkOne[9].batteryStats 	"account 1" 	143298.6653239
scalar Forest.networkOne[9].batteryStats 	account 	2
scalar Forest.networkOne[9].batteryStats 	"energy (mWs)" 	246.88344959997
scalar Forest.networkOne[9].batteryStats 	"time (s)" 	4.729568
scalar Forest.networkOne[9].batteryStats 	"account 2" 	246.88344959997
scalar Forest.networkOne[9].batteryStats 	account 	3
scalar Forest.networkOne[9].batteryStats 	"energy (mWs)" 	91.465684799992
scalar Forest.networkOne[9].batteryStats 	"time (s)" 	1.621732
scalar Forest.networkOne[9].batteryStats 	"account 3" 	91.465684799992
scalar Forest.networkOne[9].batteryStats 	account 	4
scalar Forest.networkOne[9].batteryStats 	"energy (mWs)" 	0
scalar Forest.networkOne[9].batteryStats 	"time (s)" 	0
scalar Forest.networkOne[9].batteryStats 	"account 4" 	0
scalar Forest.networkOne[10].nic.mac 	nbTxFrames 	6710
scalar Forest.networkOne[10].nic.mac 	nbRxFrames 	19028
scalar Forest.networkOne[10].nic.mac 	nbDroppedFrames 	752
scalar Forest.networkOne[10].nic.mac 	nbMissedAcks 	0
scalar Forest.networkOne[10].nic.mac 	nbRecvdAcks 	0
scalar Forest.networkOne[10].nic.mac 	nbTxAcks 	0
scalar Forest.networkOne[10].nic.mac 	nbDuplicates 	0
scalar Forest.networkOne[10].nic.mac 	meanBackoff 	0.0024124913213678
scalar Forest.networkOne[10].nic.mac 	nbBackoffs 	13539
scalar Forest.networkOne[10].nic.mac 	backoffDurations 	32.662719999999
scalar Forest.networkOne[10].nic.phy 	nbFramesWithInterference 	19036
scalar Forest.networkOne[10].nic.phy 	nbFramesWithoutInterference 	160041
scalar Forest.networkOne[10].nic.phy 	nbFramesWithInterferencePartial 	7960
scalar Forest.networkOne[10].nic.phy 	nbFramesWithoutInterferencePartial 	1658
scalar Forest.networkOne[10].nic.phy 	nbFramesWithInterferenceDropped 	5640
scalar Forest.networkOne[10].nic.phy 	nbFramesWithoutInterferenceDropped 	22409
scalar Forest.networkOne[10].netwl 	nbDataPacketsForwarded 	2485
scalar Forest.networkOne[10].netwl 	nbDataPacketsReceived 	0
scalar Forest.networkOne[10].netwl 	nbDataPacketsSent 	4977
scalar Forest.networkOne[10].netwl 	nbDuplicatedFloodsReceived 	27866
scalar Forest.networkOne[10].netwl 	nbFloodsSent 	0
scalar Forest.networkOne[10].netwl 	nbPureUnicastSent 	4977
scalar Forest.networkOne[10].netwl 	nbRouteFloodsSent 	0
scalar Forest.networkOne[10].netwl 	nbRouteFloodsReceived 	5
scalar Forest.networkOne[10].netwl 	nbUnicastFloodForwarded 	2480
scalar Forest.networkOne[10].netwl 	nbPureUnicastForwarded 	0
scalar Forest.networkOne[10].netwl 	nbGetRouteFailures 	0
scalar Forest.networkOne[10].netwl 	nbRoutesRecorded 	1
scalar Forest.networkOne[10].netwl 	meanNbHops 	-nan
scalar Forest.networkOne[10].tranl 	nbAggrPktReceived 	0
scalar Forest.networkOne[10].tranl 	"nbAggrPktSentDown " 	0
scalar Forest.networkOne[10].appl 	"activity duration" 	-1
attr unit  s
scalar Forest.networkOne[10].appl 	firstPacketGeneration 	-1
attr unit  s
scalar Forest.networkOne[10].appl 	lastPacketReception 	-2
attr unit  s
scalar Forest.networkOne[10].appl 	nbPacketsSent 	4977
scalar Forest.networkOne[10].appl 	nbPacketsReceived 	0
statistic Forest.networkOne[10].appl 	latency
field count 0
field mean 0
field stddev -nan
field sum 0
field sqrsum 0
field min 0
field max 0
scalar Forest.networkOne[10].batteryStats 	nominal 	10800000
attr unit  mW-s
scalar Forest.networkOne[10].batteryStats 	total 	282542.21203497
attr unit  mW-s
scalar Forest.networkOne[10].batteryStats 	lifetime 	-1
attr unit  s
scalar Forest.networkOne[10].batteryStats 	"Mean power consumption" 	56.393700319089
attr unit  mW
scalar Forest.networkOne[10].batteryStats 	"num devices" 	1
scalar Forest.networkOne[10].batteryStats 	"physical layer" 	0
scalar Forest.networkOne[10].batteryStats 	"device total (mWs)" 	282542.21203209
scalar Forest.networkOne[10].batteryStats 	account 	0
scalar Forest.networkOne[10].batteryStats 	"energy (mWs)" 	0
scalar Forest.networkOne[10].batteryStats 	"time (s)" 	0
scalar Forest.networkOne[10].batteryStats 	"account 0" 	0
scalar Forest.networkOne[10].batteryStats 	account 	1
scalar Forest.networkOne[10].batteryStats 	"energy (mWs)" 	282004.61280009
scalar Forest.networkOne[10].batteryStats 	"time (s)" 	5000.0817872361
scalar Forest.networkOne[10].batteryStats 	"account 1" 	282004.61280009
scalar Forest.networkOne[10].batteryStats 	account 	2
scalar Forest.networkOne[10].batteryStats 	"energy (mWs)" 	392.27673600001
scalar Forest.networkOne[10].batteryStats 	"time (s)" 	7.51488
scalar Forest.networkOne[10].batteryStats 	"account 2" 	392.27673600001
scalar Forest.networkOne[10].batteryStats 	account 	3
scalar Forest.networkOne[10].batteryStats 	"energy (mWs)" 	145.32249600001
scalar Forest.networkOne[10].batteryStats 	"time (s)" 	2.57664
scalar Forest.networkOne[10].batteryStats 	"account 3" 	145.32249600001
scalar Forest.networkOne[10].batteryStats 	account 	4
scalar Forest.networkOne[10].batteryStats 	"energy (mWs)" 	0
scalar Forest.networkOne[10].batteryStats 	"time (s)" 	0
scalar Forest.networkOne[10].batteryStats 	"account 4" 	0
scalar Forest.networkOne[11].nic.mac 	nbTxFrames 	4259
scalar Forest.networkOne[11].nic.mac 	nbRxFrames 	20240
scalar Forest.networkOne[11].nic.mac 	nbDroppedFrames 	721
scalar Forest.networkOne[11].nic.mac 	nbMissedAcks 	0
scalar Forest.networkOne[11].nic.mac 	nbRecvdAcks 	0
scalar Forest.networkOne[11].nic.mac 	nbTxAcks 	0
scalar Forest.networkOne[11].nic.mac 	nbDuplicates 	0
scalar Forest.networkOne[11].nic.mac 	meanBackoff 	0.0027099781500364
scalar Forest.networkOne[11].nic.mac 	nbBackoffs 	10984
scalar Forest.networkOne[11].nic.mac 	backoffDurations 	29.766399999999
scalar Forest.networkOne[11].nic.phy 	nbFramesWithInterference 	19672
scalar Forest.networkOne[11].nic.phy 	nbFramesWithoutInterference 	170344
scalar Forest.networkOne[11].nic.phy 	nbFramesWithInterferencePartial 	9026
scalar Forest.networkOne[11].nic.phy 	nbFramesWithoutInterferencePartial 	1462
scalar Forest.networkOne[11].nic.phy 	nbFramesWithInterferenceDropped 	5818
scalar Forest.networkOne[11].nic.phy 	nbFramesWithoutInterferenceDropped 	19848
scalar Forest.networkOne[11].netwl 	nbDataPacketsForwarded 	2480
scalar Forest.networkOne[11].netwl 	nbDataPacketsReceived 	0
scalar Forest.networkOne[11].netwl 	nbDataPacketsSent 	2500
scalar Forest.networkOne[11].netwl 	nbDuplicatedFloodsReceived 	29676
scalar Forest.networkOne[11].netwl 	nbFloodsSent 	0
scalar Forest.networkOne[11].netwl 	nbPureUnicastSent 	2500
scalar Forest.networkOne[11].netwl 	nbRouteFloodsSent 	0
scalar Forest.networkOne[11].netwl 	nbRouteFloodsReceived 	3
scalar Forest.networkOne[11].netwl 	nbUnicastFloodForwarded 	2477
scalar Forest.networkOne[11].netwl 	nbPureUnicastForwarded 	0
scalar Forest.networkOne[11].netwl 	nbGetRouteFailures 	0
scalar Forest.networkOne[11].netwl 	nbRoutesRecorded 	1
scalar Forest.networkOne[11].netwl 	meanNbHops 	-nan
scalar Forest.networkOne[11].tranl 	nbAggrPktReceived 	0
scalar Forest.networkOne[11].tranl 	"nbAggrPktSentDown " 	0
scalar Forest.networkOne[11].appl 	"activity duration" 	-1
attr unit  s
scalar Forest.networkOne[11].appl 	firstPacketGeneration 	-1
attr unit  s
scalar Forest.networkOne[11].appl 	lastPacketReception 	-2
attr unit  s
scalar Forest.networkOne[11].appl 	nbPacketsSent 	2500
scalar Forest.networkOne[11].appl 	nbPacketsReceived 	0
statistic Forest.networkOne[11].appl 	latency
field count 0
field mean 0
field stddev -nan
field sum 0
field sqrsum 0
field min 0
field max 0
scalar Forest.networkOne[11].batteryStats 	nominal 	10800000
attr unit  mW-s
scalar Forest.networkOne[11].batteryStats 	total 	140395.42674087
attr unit  mW-s
scalar Forest.networkOne[11].batteryStats 	lifetime 	-1
attr unit  s
scalar Forest.networkOne[11].batteryStats 	"Mean power consumption" 	28.022069922831
attr unit  mW
scalar Forest.networkOne[11].batteryStats 	"num devices" 	1
scalar Forest.networkOne[11].batteryStats 	"physical layer" 	0
scalar Forest.networkOne[11].batteryStats 	"device total (mWs)" 	140395.42673899
scalar Forest.networkOne[11].batteryStats 	account 	0
scalar Forest.networkOne[11].batteryStats 	"energy (mWs)" 	0.15879403874894
scalar Forest.networkOne[11].batteryStats 	"time (s)" 	2520.5402976022
scalar Forest.networkOne[11].batteryStats 	"account 0" 	0.15879403874894
scalar Forest.networkOne[11].batteryStats 	account 	1
scalar Forest.networkOne[11].batteryStats 	"energy (mWs)" 	140054.03109216
scalar Forest.networkOne[11].batteryStats 	"time (s)" 	2483.2275016339
scalar Forest.networkOne[11].batteryStats 	"account 1" 	140054.03109216
scalar Forest.networkOne[11].batteryStats 	account 	2
scalar Forest.networkOne[11].batteryStats 	"energy (mWs)" 	248.99149439997
scalar Forest.networkOne[11].batteryStats 	"time (s)" 	4.769952
scalar Forest.networkOne[11].batteryStats 	"account 2" 	248.99149439997
scalar Forest.networkOne[11].batteryStats 	account 	3
scalar Forest.networkOne[11].batteryStats 	"energy (mWs)" 	92.245358399991
scalar Forest.networkOne[11].batteryStats 	"time (s)" 	1.635556
scalar Forest.networkOne[11].batteryStats 	"account 3" 	92.245358399991
scalar Forest.networkOne[11].batteryStats 	account 	4
scalar Forest.networkOne[11].batteryStats 	"energy (mWs)" 	0
scalar Forest.networkOne[11].batteryStats 	"time (s)" 	0
scalar Forest.networkOne[11].batteryStats 	"account 4" 	0
scalar Forest.networkOne[12].nic.mac 	nbTxFrames 	4275
scalar Forest.networkOne[12].nic.mac 	nbRxFrames 	20591
scalar Forest.networkOne[12].nic.mac 	nbDroppedFrames 	708
scalar Forest.networkOne[12].nic.mac 	nbMissedAcks 	0
scalar Forest.networkOne[12].nic.mac 	nbRecvdAcks 	0
scalar Forest.networkOne[12].nic.mac 	nbTxAcks 	0
scalar Forest.networkOne[12].nic.mac 	nbDuplicates 	0
scalar Forest.networkOne[12].nic.mac 	meanBackoff 	0.0027447686573947
scalar Forest.networkOne[12].nic.mac 	nbBackoffs 	11001
scalar Forest.networkOne[12].nic.mac 	backoffDurations 	30.195199999999
scalar Forest.networkOne[12].nic.phy 	nbFramesWithInterference 	19302
scalar Forest.networkOne[12].nic.phy 	nbFramesWithoutInterference 	187520
scalar Forest.networkOne[12].nic.phy 	nbFramesWithInterferencePartial 	10533
scalar Forest.networkOne[12].nic.phy 	nbFramesWithoutInterferencePartial 	1304
scalar Forest.networkOne[12].nic.phy 	nbFramesWithInterferenceDropped 	5817
scalar Forest.networkOne[12].nic.phy 	nbFramesWithoutInterferenceDropped 	18674
scalar Forest.networkOne[12].netwl 	nbDataPacketsForwarded 	2483
scalar Forest.networkOne[12].netwl 	nbDataPacketsReceived 	0
scalar Forest.networkOne[12].netwl 	nbDataPacketsSent 	2500
scalar Forest.networkOne[12].netwl 	nbDuplicatedFloodsReceived 	29870
scalar Forest.networkOne[12].netwl 	nbFloodsSent 	0
scalar Forest.networkOne[12].netwl 	nbPureUnicastSent 	2500
scalar Forest.networkOne[12].netwl 	nbRouteFloodsSent 	0
scalar Forest.networkOne[12].netwl 	nbRouteFloodsReceived 	3
scalar Forest.networkOne[12].netwl 	nbUnicastFloodForwarded 	2480
scalar Forest.networkOne[12].netwl 	nbPureUnicastForwarded 	0
scalar Forest.networkOne[12].netwl 	nbGetRouteFailures 	0
scalar Forest.networkOne[12].netwl 	nbRoutesRecorded 	1
scalar Forest.networkOne[12].netwl 	meanNbHops 	-nan
scalar Forest.networkOne[12].tranl 	nbAggrPktReceived 	0
scalar Forest.networkOne[12].tranl 	"nbAggrPktSentDown " 	0
scalar Forest.networkOne[12].appl 	"activity duration" 	-1
attr unit  s
scalar Forest.networkOne[12].appl 	firstPacketGeneration 	-1
attr unit  s
scalar Forest.networkOne[12].appl 	lastPacketReception 	-2
attr unit  s
scalar Forest.networkOne[12].appl 	nbPacketsSent 	2500
scalar Forest.networkOne[12].appl 	nbPacketsReceived 	0
statistic Forest.networkOne[12].appl 	latency
field count 0
field mean 0
field stddev -nan
field sum 0
field sqrsum 0
field min 0
field max 0
scalar Forest.networkOne[12].batteryStats 	nominal 	10800000
attr unit  mW-s
scalar Forest.networkOne[12].batteryStats 	total 	147809.67748109
attr unit  mW-s
scalar Forest.networkOne[12].batteryStats 	lifetime 	-1
attr unit  s
scalar Forest.networkOne[12].batteryStats 	"Mean power consumption" 	29.501909099155
attr unit  mW
scalar Forest.networkOne[12].batteryStats 	"num devices" 	1
scalar Forest.networkOne[12].batteryStats 	"physical layer" 	0
scalar Forest.networkOne[12].batteryStats 	"device total (mWs)" 	147809.67747922
scalar Forest.networkOne[12].batteryStats 	account 	0
scalar Forest.networkOne[12].batteryStats 	"energy (mWs)" 	0.15051206989972
scalar Forest.networkOne[12].batteryStats 	"time (s)" 	2389.0804745988
scalar Forest.networkOne[12].batteryStats 	"account 0" 	0.15051206989972
scalar Forest.networkOne[12].batteryStats 	account 	1
scalar Forest.networkOne[12].batteryStats 	"energy (mWs)" 	147467.01150955
scalar Forest.networkOne[12].batteryStats 	"time (s)" 	2614.6633246373
scalar Forest.networkOne[12].batteryStats 	"account 1" 	147467.01150955
scalar Forest.networkOne[12].batteryStats 	account 	2
scalar Forest.networkOne[12].batteryStats 	"energy (mWs)" 	249.92357759997
scalar Forest.networkOne[12].batteryStats 	"time (s)" 	4.787808
scalar Forest.networkOne[12].batteryStats 	"account 2" 	249.92357759997
scalar Forest.networkOne[12].batteryStats 	account 	3
scalar Forest.networkOne[12].batteryStats 	"energy (mWs)" 	92.591879999991
scalar Forest.networkOne[12].batteryStats 	"time (s)" 	1.6417
scalar Forest.networkOne[12].batteryStats 	"account 3" 	92.591879999991
scalar Forest.networkOne[12].batteryStats 	account 	4
scalar Forest.networkOne[12].batteryStats 	"energy (mWs)" 	0
scalar Forest.networkOne[12].batteryStats 	"time (s)" 	0
scalar Forest.networkOne[12].batteryStats 	"account 4" 	0
scalar Forest.networkOne[13].nic.mac 	nbTxFrames 	7783
scalar Forest.networkOne[13].nic.mac 	nbRxFrames 	21114
scalar Forest.networkOne[13].nic.mac 	nbDroppedFrames 	731
scalar Forest.networkOne[13].nic.mac 	nbMissedAcks 	0
scalar Forest.networkOne[13].nic.mac 	nbRecvdAcks 	0
scalar Forest.networkOne[13].nic.mac 	nbTxAcks 	0
scalar Forest.networkOne[13].nic.mac 	nbDuplicates 	0
scalar Forest.networkOne[13].nic.mac 	meanBackoff 	0.0023379179810725
scalar Forest.networkOne[13].nic.mac 	nbBackoffs 	14899
scalar Forest.networkOne[13].nic.mac 	backoffDurations 	34.83264
scalar Forest.networkOne[13].nic.phy 	nbFramesWithInterference 	18740
scalar Forest.networkOne[13].nic.phy 	nbFramesWithoutInterference 	204063
scalar Forest.networkOne[13].nic.phy 	nbFramesWithInterferencePartial 	11560
scalar Forest.networkOne[13].nic.phy 	nbFramesWithoutInterferencePartial 	1404
[...]
scalar Forest.networkOne[76].netwl 	nbDuplicatedFloodsReceived 	24679
scalar Forest.networkOne[76].netwl 	nbFloodsSent 	0
scalar Forest.networkOne[76].netwl 	nbPureUnicastSent 	2500
scalar Forest.networkOne[76].netwl 	nbRouteFloodsSent 	0
scalar Forest.networkOne[76].netwl 	nbRouteFloodsReceived 	2
scalar Forest.networkOne[76].netwl 	nbUnicastFloodForwarded 	2383
scalar Forest.networkOne[76].netwl 	nbPureUnicastForwarded 	1687
scalar Forest.networkOne[76].netwl 	nbGetRouteFailures 	0
scalar Forest.networkOne[76].netwl 	nbRoutesRecorded 	1
scalar Forest.networkOne[76].netwl 	meanNbHops 	-nan
scalar Forest.networkOne[76].tranl 	nbAggrPktReceived 	0
scalar Forest.networkOne[76].tranl 	"nbAggrPktSentDown " 	0
scalar Forest.networkOne[76].appl 	"activity duration" 	-1
attr unit  s
scalar Forest.networkOne[76].appl 	firstPacketGeneration 	-1
attr unit  s
scalar Forest.networkOne[76].appl 	lastPacketReception 	-2
attr unit  s
scalar Forest.networkOne[76].appl 	nbPacketsSent 	2500
scalar Forest.networkOne[76].appl 	nbPacketsReceived 	0
statistic Forest.networkOne[76].appl 	latency
field count 0
field mean 0
field stddev -nan
field sum 0
field sqrsum 0
field min 0
field max 0
scalar Forest.networkOne[76].batteryStats 	nominal 	10800000
attr unit  mW-s
scalar Forest.networkOne[76].batteryStats 	total 	135389.39595112
attr unit  mW-s
scalar Forest.networkOne[76].batteryStats 	lifetime 	-1
attr unit  s
scalar Forest.networkOne[76].batteryStats 	"Mean power consumption" 	27.022896744026
attr unit  mW
scalar Forest.networkOne[76].batteryStats 	"num devices" 	1
scalar Forest.networkOne[76].batteryStats 	"physical layer" 	0
scalar Forest.networkOne[76].batteryStats 	"device total (mWs)" 	135389.39594852
scalar Forest.networkOne[76].batteryStats 	account 	0
scalar Forest.networkOne[76].batteryStats 	"energy (mWs)" 	0.16437670307894
scalar Forest.networkOne[76].batteryStats 	"time (s)" 	2609.154017126
scalar Forest.networkOne[76].batteryStats 	"account 0" 	0.16437670307894
scalar Forest.networkOne[76].batteryStats 	account 	1
scalar Forest.networkOne[76].batteryStats 	"energy (mWs)" 	134907.94216222
scalar Forest.networkOne[76].batteryStats 	"time (s)" 	2391.9847901101
scalar Forest.networkOne[76].batteryStats 	"account 1" 	134907.94216222
scalar Forest.networkOne[76].batteryStats 	account 	2
scalar Forest.networkOne[76].batteryStats 	"energy (mWs)" 	351.1865664
scalar Forest.networkOne[76].batteryStats 	"time (s)" 	6.727712
scalar Forest.networkOne[76].batteryStats 	"account 2" 	351.1865664
scalar Forest.networkOne[76].batteryStats 	account 	3
scalar Forest.networkOne[76].batteryStats 	"energy (mWs)" 	130.10284319999
scalar Forest.networkOne[76].batteryStats 	"time (s)" 	2.306788
scalar Forest.networkOne[76].batteryStats 	"account 3" 	130.10284319999
scalar Forest.networkOne[76].batteryStats 	account 	4
scalar Forest.networkOne[76].batteryStats 	"energy (mWs)" 	0
scalar Forest.networkOne[76].batteryStats 	"time (s)" 	0
scalar Forest.networkOne[76].batteryStats 	"account 4" 	0
scalar Forest.networkOne[77].nic.mac 	nbTxFrames 	4340
scalar Forest.networkOne[77].nic.mac 	nbRxFrames 	16813
scalar Forest.networkOne[77].nic.mac 	nbDroppedFrames 	585
scalar Forest.networkOne[77].nic.mac 	nbMissedAcks 	0
scalar Forest.networkOne[77].nic.mac 	nbRecvdAcks 	0
scalar Forest.networkOne[77].nic.mac 	nbTxAcks 	0
scalar Forest.networkOne[77].nic.mac 	nbDuplicates 	0
scalar Forest.networkOne[77].nic.mac 	meanBackoff 	0.0026784973703981
scalar Forest.networkOne[77].nic.mac 	nbBackoffs 	10648
scalar Forest.networkOne[77].nic.mac 	backoffDurations 	28.520639999999
scalar Forest.networkOne[77].nic.phy 	nbFramesWithInterference 	12194
scalar Forest.networkOne[77].nic.phy 	nbFramesWithoutInterference 	162366
scalar Forest.networkOne[77].nic.phy 	nbFramesWithInterferencePartial 	13207
scalar Forest.networkOne[77].nic.phy 	nbFramesWithoutInterferencePartial 	1433
scalar Forest.networkOne[77].nic.phy 	nbFramesWithInterferenceDropped 	5536
scalar Forest.networkOne[77].nic.phy 	nbFramesWithoutInterferenceDropped 	20011
scalar Forest.networkOne[77].netwl 	nbDataPacketsForwarded 	2425
scalar Forest.networkOne[77].netwl 	nbDataPacketsReceived 	0
scalar Forest.networkOne[77].netwl 	nbDataPacketsSent 	2500
scalar Forest.networkOne[77].netwl 	nbDuplicatedFloodsReceived 	24649
scalar Forest.networkOne[77].netwl 	nbFloodsSent 	0
scalar Forest.networkOne[77].netwl 	nbPureUnicastSent 	2500
scalar Forest.networkOne[77].netwl 	nbRouteFloodsSent 	0
scalar Forest.networkOne[77].netwl 	nbRouteFloodsReceived 	3
scalar Forest.networkOne[77].netwl 	nbUnicastFloodForwarded 	2422
scalar Forest.networkOne[77].netwl 	nbPureUnicastForwarded 	0
scalar Forest.networkOne[77].netwl 	nbGetRouteFailures 	0
scalar Forest.networkOne[77].netwl 	nbRoutesRecorded 	1
scalar Forest.networkOne[77].netwl 	meanNbHops 	-nan
scalar Forest.networkOne[77].tranl 	nbAggrPktReceived 	0
scalar Forest.networkOne[77].tranl 	"nbAggrPktSentDown " 	0
scalar Forest.networkOne[77].appl 	"activity duration" 	-1
attr unit  s
scalar Forest.networkOne[77].appl 	firstPacketGeneration 	-1
attr unit  s
scalar Forest.networkOne[77].appl 	lastPacketReception 	-2
attr unit  s
scalar Forest.networkOne[77].appl 	nbPacketsSent 	2500
scalar Forest.networkOne[77].appl 	nbPacketsReceived 	0
statistic Forest.networkOne[77].appl 	latency
field count 0
field mean 0
field stddev -nan
field sum 0
field sqrsum 0
field min 0
field max 0
scalar Forest.networkOne[77].batteryStats 	nominal 	10800000
attr unit  mW-s
scalar Forest.networkOne[77].batteryStats 	total 	137820.54647637
attr unit  mW-s
scalar Forest.networkOne[77].batteryStats 	lifetime 	-1
attr unit  s
scalar Forest.networkOne[77].batteryStats 	"Mean power consumption" 	27.508139544259
attr unit  mW
scalar Forest.networkOne[77].batteryStats 	"num devices" 	1
scalar Forest.networkOne[77].batteryStats 	"physical layer" 	0
scalar Forest.networkOne[77].batteryStats 	"device total (mWs)" 	137820.54647454
scalar Forest.networkOne[77].batteryStats 	account 	0
scalar Forest.networkOne[77].batteryStats 	"energy (mWs)" 	0.16166981268967
scalar Forest.networkOne[77].batteryStats 	"time (s)" 	2566.1875030106
scalar Forest.networkOne[77].batteryStats 	"account 0" 	0.16166981268967
scalar Forest.networkOne[77].batteryStats 	account 	1
scalar Forest.networkOne[77].batteryStats 	"energy (mWs)" 	137472.66144313
scalar Forest.networkOne[77].batteryStats 	"time (s)" 	2437.4585362255
scalar Forest.networkOne[77].batteryStats 	"account 1" 	137472.66144313
scalar Forest.networkOne[77].batteryStats 	account 	2
scalar Forest.networkOne[77].batteryStats 	"energy (mWs)" 	253.72373759997
scalar Forest.networkOne[77].batteryStats 	"time (s)" 	4.860608
scalar Forest.networkOne[77].batteryStats 	"account 2" 	253.72373759997
scalar Forest.networkOne[77].batteryStats 	account 	3
scalar Forest.networkOne[77].batteryStats 	"energy (mWs)" 	93.999623999991
scalar Forest.networkOne[77].batteryStats 	"time (s)" 	1.66666
scalar Forest.networkOne[77].batteryStats 	"account 3" 	93.999623999991
scalar Forest.networkOne[77].batteryStats 	account 	4
scalar Forest.networkOne[77].batteryStats 	"energy (mWs)" 	0
scalar Forest.networkOne[77].batteryStats 	"time (s)" 	0
scalar Forest.networkOne[77].batteryStats 	"account 4" 	0
scalar Forest.networkOne[78].nic.mac 	nbTxFrames 	4338
scalar Forest.networkOne[78].nic.mac 	nbRxFrames 	16245
scalar Forest.networkOne[78].nic.mac 	nbDroppedFrames 	552
scalar Forest.networkOne[78].nic.mac 	nbMissedAcks 	0
scalar Forest.networkOne[78].nic.mac 	nbRecvdAcks 	0
scalar Forest.networkOne[78].nic.mac 	nbTxAcks 	0
scalar Forest.networkOne[78].nic.mac 	nbDuplicates 	0
scalar Forest.networkOne[78].nic.mac 	meanBackoff 	0.0026343951958821
scalar Forest.networkOne[78].nic.mac 	nbBackoffs 	10491
scalar Forest.networkOne[78].nic.mac 	backoffDurations 	27.637439999999
scalar Forest.networkOne[78].nic.phy 	nbFramesWithInterference 	11715
scalar Forest.networkOne[78].nic.phy 	nbFramesWithoutInterference 	151358
scalar Forest.networkOne[78].nic.phy 	nbFramesWithInterferencePartial 	12040
scalar Forest.networkOne[78].nic.phy 	nbFramesWithoutInterferencePartial 	1469
scalar Forest.networkOne[78].nic.phy 	nbFramesWithInterferenceDropped 	5433
scalar Forest.networkOne[78].nic.phy 	nbFramesWithoutInterferenceDropped 	20037
scalar Forest.networkOne[78].netwl 	nbDataPacketsForwarded 	2390
scalar Forest.networkOne[78].netwl 	nbDataPacketsReceived 	0
scalar Forest.networkOne[78].netwl 	nbDataPacketsSent 	2500
scalar Forest.networkOne[78].netwl 	nbDuplicatedFloodsReceived 	23844
scalar Forest.networkOne[78].netwl 	nbFloodsSent 	0
scalar Forest.networkOne[78].netwl 	nbPureUnicastSent 	2500
scalar Forest.networkOne[78].netwl 	nbRouteFloodsSent 	0
scalar Forest.networkOne[78].netwl 	nbRouteFloodsReceived 	3
scalar Forest.networkOne[78].netwl 	nbUnicastFloodForwarded 	2387
scalar Forest.networkOne[78].netwl 	nbPureUnicastForwarded 	0
scalar Forest.networkOne[78].netwl 	nbGetRouteFailures 	0
scalar Forest.networkOne[78].netwl 	nbRoutesRecorded 	1
scalar Forest.networkOne[78].netwl 	meanNbHops 	-nan
scalar Forest.networkOne[78].tranl 	nbAggrPktReceived 	0
scalar Forest.networkOne[78].tranl 	"nbAggrPktSentDown " 	0
scalar Forest.networkOne[78].appl 	"activity duration" 	-1
attr unit  s
scalar Forest.networkOne[78].appl 	firstPacketGeneration 	-1
attr unit  s
scalar Forest.networkOne[78].appl 	lastPacketReception 	-2
attr unit  s
scalar Forest.networkOne[78].appl 	nbPacketsSent 	2500
scalar Forest.networkOne[78].appl 	nbPacketsReceived 	0
statistic Forest.networkOne[78].appl 	latency
field count 0
field mean 0
field stddev -nan
field sum 0
field sqrsum 0
field min 0
field max 0
scalar Forest.networkOne[78].batteryStats 	nominal 	10800000
attr unit  mW-s
scalar Forest.networkOne[78].batteryStats 	total 	136220.51392098
attr unit  mW-s
scalar Forest.networkOne[78].batteryStats 	lifetime 	-1
attr unit  s
scalar Forest.networkOne[78].batteryStats 	"Mean power consumption" 	27.188782816004
attr unit  mW
scalar Forest.networkOne[78].batteryStats 	"num devices" 	1
scalar Forest.networkOne[78].batteryStats 	"physical layer" 	0
scalar Forest.networkOne[78].batteryStats 	"device total (mWs)" 	136220.51391908
scalar Forest.networkOne[78].batteryStats 	account 	0
scalar Forest.networkOne[78].batteryStats 	"energy (mWs)" 	0.16345709530247
scalar Forest.networkOne[78].batteryStats 	"time (s)" 	2594.5570682932
scalar Forest.networkOne[78].batteryStats 	"account 0" 	0.16345709530247
scalar Forest.networkOne[78].batteryStats 	account 	1
scalar Forest.networkOne[78].batteryStats 	"energy (mWs)" 	135872.78400279
scalar Forest.networkOne[78].batteryStats 	"time (s)" 	2409.0919149429
scalar Forest.networkOne[78].batteryStats 	"account 1" 	135872.78400279
scalar Forest.networkOne[78].batteryStats 	account 	2
scalar Forest.networkOne[78].batteryStats 	"energy (mWs)" 	253.61015039997
scalar Forest.networkOne[78].batteryStats 	"time (s)" 	4.858432
scalar Forest.networkOne[78].batteryStats 	"account 2" 	253.61015039997
scalar Forest.networkOne[78].batteryStats 	account 	3
scalar Forest.networkOne[78].batteryStats 	"energy (mWs)" 	93.956308799991
scalar Forest.networkOne[78].batteryStats 	"time (s)" 	1.665892
scalar Forest.networkOne[78].batteryStats 	"account 3" 	93.956308799991
scalar Forest.networkOne[78].batteryStats 	account 	4
scalar Forest.networkOne[78].batteryStats 	"energy (mWs)" 	0
scalar Forest.networkOne[78].batteryStats 	"time (s)" 	0
scalar Forest.networkOne[78].batteryStats 	"account 4" 	0
scalar Forest.networkOne[79].nic.mac 	nbTxFrames 	4410
scalar Forest.networkOne[79].nic.mac 	nbRxFrames 	16083
scalar Forest.networkOne[79].nic.mac 	nbDroppedFrames 	573
scalar Forest.networkOne[79].nic.mac 	nbMissedAcks 	0
scalar Forest.networkOne[79].nic.mac 	nbRecvdAcks 	0
scalar Forest.networkOne[79].nic.mac 	nbTxAcks 	0
scalar Forest.networkOne[79].nic.mac 	nbDuplicates 	0
scalar Forest.networkOne[79].nic.mac 	meanBackoff 	0.0026422203405776
scalar Forest.networkOne[79].nic.mac 	nbBackoffs 	10629
scalar Forest.networkOne[79].nic.mac 	backoffDurations 	28.08416
scalar Forest.networkOne[79].nic.phy 	nbFramesWithInterference 	11484
scalar Forest.networkOne[79].nic.phy 	nbFramesWithoutInterference 	140221
scalar Forest.networkOne[79].nic.phy 	nbFramesWithInterferencePartial 	11254
scalar Forest.networkOne[79].nic.phy 	nbFramesWithoutInterferencePartial 	1587
scalar Forest.networkOne[79].nic.phy 	nbFramesWithInterferenceDropped 	5435
scalar Forest.networkOne[79].nic.phy 	nbFramesWithoutInterferenceDropped 	21477
scalar Forest.networkOne[79].netwl 	nbDataPacketsForwarded 	2483
scalar Forest.networkOne[79].netwl 	nbDataPacketsReceived 	0
scalar Forest.networkOne[79].netwl 	nbDataPacketsSent 	2500
scalar Forest.networkOne[79].netwl 	nbDuplicatedFloodsReceived 	23445
scalar Forest.networkOne[79].netwl 	nbFloodsSent 	0
scalar Forest.networkOne[79].netwl 	nbPureUnicastSent 	2500
scalar Forest.networkOne[79].netwl 	nbRouteFloodsSent 	0
scalar Forest.networkOne[79].netwl 	nbRouteFloodsReceived 	3
scalar Forest.networkOne[79].netwl 	nbUnicastFloodForwarded 	2480
scalar Forest.networkOne[79].netwl 	nbPureUnicastForwarded 	0
scalar Forest.networkOne[79].netwl 	nbGetRouteFailures 	0
scalar Forest.networkOne[79].netwl 	nbRoutesRecorded 	1
scalar Forest.networkOne[79].netwl 	meanNbHops 	-nan
scalar Forest.networkOne[79].tranl 	nbAggrPktReceived 	0
scalar Forest.networkOne[79].tranl 	"nbAggrPktSentDown " 	0
scalar Forest.networkOne[79].appl 	"activity duration" 	-1
attr unit  s
scalar Forest.networkOne[79].appl 	firstPacketGeneration 	-1
attr unit  s
scalar Forest.networkOne[79].appl 	lastPacketReception 	-2
attr unit  s
scalar Forest.networkOne[79].appl 	nbPacketsSent 	2500
scalar Forest.networkOne[79].appl 	nbPacketsReceived 	0
statistic Forest.networkOne[79].appl 	latency
field count 0
field mean 0
field stddev -nan
field sum 0
field sqrsum 0
field min 0
field max 0
scalar Forest.networkOne[79].batteryStats 	nominal 	10800000
attr unit  mW-s
scalar Forest.networkOne[79].batteryStats 	total 	143919.9082075
attr unit  mW-s
scalar Forest.networkOne[79].batteryStats 	lifetime 	-1
attr unit  s
scalar Forest.networkOne[79].batteryStats 	"Mean power consumption" 	28.725534903082
attr unit  mW
scalar Forest.networkOne[79].batteryStats 	"num devices" 	1
scalar Forest.networkOne[79].batteryStats 	"physical layer" 	0
scalar Forest.networkOne[79].batteryStats 	"device total (mWs)" 	143919.90820559
scalar Forest.networkOne[79].batteryStats 	account 	0
scalar Forest.networkOne[79].batteryStats 	"energy (mWs)" 	0.15485631983833
scalar Forest.networkOne[79].batteryStats 	"time (s)" 	2458.0368228307
scalar Forest.networkOne[79].batteryStats 	"account 0" 	0.15485631983833
scalar Forest.networkOne[79].batteryStats 	account 	1
scalar Forest.networkOne[79].batteryStats 	"energy (mWs)" 	143566.41479407
scalar Forest.networkOne[79].batteryStats 	"time (s)" 	2545.5038084054
scalar Forest.networkOne[79].batteryStats 	"account 1" 	143566.41479407
scalar Forest.networkOne[79].batteryStats 	account 	2
scalar Forest.networkOne[79].batteryStats 	"energy (mWs)" 	257.82289919997
scalar Forest.networkOne[79].batteryStats 	"time (s)" 	4.939136
scalar Forest.networkOne[79].batteryStats 	"account 2" 	257.82289919997
scalar Forest.networkOne[79].batteryStats 	account 	3
scalar Forest.networkOne[79].batteryStats 	"energy (mWs)" 	95.515655999991
scalar Forest.networkOne[79].batteryStats 	"time (s)" 	1.69354
scalar Forest.networkOne[79].batteryStats 	"account 3" 	95.515655999991
scalar Forest.networkOne[79].batteryStats 	account 	4
scalar Forest.networkOne[79].batteryStats 	"energy (mWs)" 	0
scalar Forest.networkOne[79].batteryStats 	"time (s)" 	0
scalar Forest.networkOne[79].batteryStats 	"account 4" 	0
scalar Forest.networkOne[80].nic.mac 	nbTxFrames 	4426
scalar Forest.networkOne[80].nic.mac 	nbRxFrames 	14482
scalar Forest.networkOne[80].nic.mac 	nbDroppedFrames 	547
scalar Forest.networkOne[80].nic.mac 	nbMissedAcks 	0
scalar Forest.networkOne[80].nic.mac 	nbRecvdAcks 	0
scalar Forest.networkOne[80].nic.mac 	nbTxAcks 	0
scalar Forest.networkOne[80].nic.mac 	nbDuplicates 	0
scalar Forest.networkOne[80].nic.mac 	meanBackoff 	0.0026704020752269
scalar Forest.networkOne[80].nic.mac 	nbBackoffs 	10794
scalar Forest.networkOne[80].nic.mac 	backoffDurations 	28.824319999999
scalar Forest.networkOne[80].nic.phy 	nbFramesWithInterference 	10800
scalar Forest.networkOne[80].nic.phy 	nbFramesWithoutInterference 	119309
scalar Forest.networkOne[80].nic.phy 	nbFramesWithInterferencePartial 	9065
scalar Forest.networkOne[80].nic.phy 	nbFramesWithoutInterferencePartial 	1565
scalar Forest.networkOne[80].nic.phy 	nbFramesWithInterferenceDropped 	5564
scalar Forest.networkOne[80].nic.phy 	nbFramesWithoutInterferenceDropped 	21301
scalar Forest.networkOne[80].netwl 	nbDataPacketsForwarded 	2473
scalar Forest.networkOne[80].netwl 	nbDataPacketsReceived 	0
scalar Forest.networkOne[80].netwl 	nbDataPacketsSent 	2500
scalar Forest.networkOne[80].netwl 	nbDuplicatedFloodsReceived 	21718
scalar Forest.networkOne[80].netwl 	nbFloodsSent 	0
scalar Forest.networkOne[80].netwl 	nbPureUnicastSent 	2500
scalar Forest.networkOne[80].netwl 	nbRouteFloodsSent 	0
scalar Forest.networkOne[80].netwl 	nbRouteFloodsReceived 	3
scalar Forest.networkOne[80].netwl 	nbUnicastFloodForwarded 	2470
scalar Forest.networkOne[80].netwl 	nbPureUnicastForwarded 	0
scalar Forest.networkOne[80].netwl 	nbGetRouteFailures 	0
scalar Forest.networkOne[80].netwl 	nbRoutesRecorded 	1
scalar Forest.networkOne[80].netwl 	meanNbHops 	-nan
scalar Forest.networkOne[80].tranl 	nbAggrPktReceived 	0
scalar Forest.networkOne[80].tranl 	"nbAggrPktSentDown " 	0
scalar Forest.networkOne[80].appl 	"activity duration" 	-1
attr unit  s
scalar Forest.networkOne[80].appl 	firstPacketGeneration 	-1
attr unit  s
scalar Forest.networkOne[80].appl 	lastPacketReception 	-2
attr unit  s
scalar Forest.networkOne[80].appl 	nbPacketsSent 	2500
scalar Forest.networkOne[80].appl 	nbPacketsReceived 	0
statistic Forest.networkOne[80].appl 	latency
field count 0
field mean 0
field stddev -nan
field sum 0
field sqrsum 0
field min 0
field max 0
scalar Forest.networkOne[80].batteryStats 	nominal 	10800000
attr unit  mW-s
scalar Forest.networkOne[80].batteryStats 	total 	140033.89319911
attr unit  mW-s
scalar Forest.networkOne[80].batteryStats 	lifetime 	-1
attr unit  s
scalar Forest.networkOne[80].batteryStats 	"Mean power consumption" 	27.949910035419
attr unit  mW
scalar Forest.networkOne[80].batteryStats 	"num devices" 	1
scalar Forest.networkOne[80].batteryStats 	"physical layer" 	0
scalar Forest.networkOne[80].batteryStats 	"device total (mWs)" 	140033.89319727
scalar Forest.networkOne[80].batteryStats 	account 	0
scalar Forest.networkOne[80].batteryStats 	"energy (mWs)" 	0.15919700266146
scalar Forest.networkOne[80].batteryStats 	"time (s)" 	2526.9365501818
scalar Forest.networkOne[80].batteryStats 	"account 0" 	0.15919700266146
scalar Forest.networkOne[80].batteryStats 	account 	1
scalar Forest.networkOne[80].batteryStats 	"energy (mWs)" 	139679.12018107
scalar Forest.networkOne[80].batteryStats 	"time (s)" 	2476.5801450543
scalar Forest.networkOne[80].batteryStats 	"account 1" 	139679.12018107
scalar Forest.networkOne[80].batteryStats 	account 	2
scalar Forest.networkOne[80].batteryStats 	"energy (mWs)" 	258.75164159997
scalar Forest.networkOne[80].batteryStats 	"time (s)" 	4.956928
scalar Forest.networkOne[80].batteryStats 	"account 2" 	258.75164159997
scalar Forest.networkOne[80].batteryStats 	account 	3
scalar Forest.networkOne[80].batteryStats 	"energy (mWs)" 	95.862177599991
scalar Forest.networkOne[80].batteryStats 	"time (s)" 	1.699684
scalar Forest.networkOne[80].batteryStats 	"account 3" 	95.862177599991
scalar Forest.networkOne[80].batteryStats 	account 	4
scalar Forest.networkOne[80].batteryStats 	"energy (mWs)" 	0
scalar Forest.networkOne[80].batteryStats 	"time (s)" 	0
scalar Forest.networkOne[80].batteryStats 	"account 4" 	0
