version 2
run Nodes_in_grid-0-20130618-16:57:40-14482
attr configname Nodes_in_grid
attr datetime 20130618-16:57:40
attr experiment Nodes_in_grid
attr inifile omnetpp.ini
attr iterationvars "$0=5000, $1=5000, $2=5000, $3=5000, $4=5000, $5=5000, $6=5000, $7=5000, $8=5000, $9=5000, $10=0, $11=0, $12=0, $13=0, $14=0, $15=0, $16=0, $17=0, $18=0, $19=0, $plan=1, $sensitivity=-100dBm, $20=0, $21=0"
attr iterationvars2 "$0=5000, $1=5000, $2=5000, $3=5000, $4=5000, $5=5000, $6=5000, $7=5000, $8=5000, $9=5000, $10=0, $11=0, $12=0, $13=0, $14=0, $15=0, $16=0, $17=0, $18=0, $19=0, $plan=1, $sensitivity=-100dBm, $20=0, $21=0, $repetition=0"
attr measurement "$0=5000, $1=5000, $2=5000, $3=5000, $4=5000, $5=5000, $6=5000, $7=5000, $8=5000, $9=5000, $10=0, $11=0, $12=0, $13=0, $14=0, $15=0, $16=0, $17=0, $18=0, $19=0, $plan=1, $sensitivity=-100dBm, $20=0, $21=0"
attr network Forest
attr plan 1
attr processid 14482
attr repetition 0
attr replication #0
attr resultdir results
attr runnumber 0
attr seedset 0
attr sensitivity -100dBm

scalar . 	plan 	1
scalar . 	sensitivity 	-100
attr unit  dBm
scalar Forest.networkOne[0].nic.mac 	nbTxFrames 	4991
scalar Forest.networkOne[0].nic.mac 	nbRxFrames 	197785
scalar Forest.networkOne[0].nic.mac 	nbDroppedFrames 	14
scalar Forest.networkOne[0].nic.mac 	nbMissedAcks 	0
scalar Forest.networkOne[0].nic.mac 	nbRecvdAcks 	0
scalar Forest.networkOne[0].nic.mac 	nbTxAcks 	0
scalar Forest.networkOne[0].nic.mac 	nbDuplicates 	0
scalar Forest.networkOne[0].nic.mac 	meanBackoff 	0.0015285975903615
scalar Forest.networkOne[0].nic.mac 	nbBackoffs 	6225
scalar Forest.networkOne[0].nic.mac 	backoffDurations 	9.5155200000001
scalar Forest.networkOne[0].nic.phy 	nbFramesWithInterference 	36133
scalar Forest.networkOne[0].nic.phy 	nbFramesWithoutInterference 	231653
scalar Forest.networkOne[0].nic.phy 	nbFramesWithInterferencePartial 	12541
scalar Forest.networkOne[0].nic.phy 	nbFramesWithoutInterferencePartial 	3477
scalar Forest.networkOne[0].nic.phy 	nbFramesWithInterferenceDropped 	12285
scalar Forest.networkOne[0].nic.phy 	nbFramesWithoutInterferenceDropped 	45075
scalar Forest.networkOne[0].netwl 	nbDataPacketsForwarded 	0
scalar Forest.networkOne[0].netwl 	nbDataPacketsReceived 	151107
scalar Forest.networkOne[0].netwl 	nbDataPacketsSent 	5000
scalar Forest.networkOne[0].netwl 	nbDuplicatedFloodsReceived 	48144
scalar Forest.networkOne[0].netwl 	nbFloodsSent 	5005
scalar Forest.networkOne[0].netwl 	nbPureUnicastSent 	0
scalar Forest.networkOne[0].netwl 	nbRouteFloodsSent 	5
scalar Forest.networkOne[0].netwl 	nbRouteFloodsReceived 	0
scalar Forest.networkOne[0].netwl 	nbUnicastFloodForwarded 	0
scalar Forest.networkOne[0].netwl 	nbPureUnicastForwarded 	0
scalar Forest.networkOne[0].netwl 	nbGetRouteFailures 	5000
scalar Forest.networkOne[0].netwl 	nbRoutesRecorded 	0
scalar Forest.networkOne[0].netwl 	meanNbHops 	0.51069771751143
scalar Forest.networkOne[0].tranl 	nbAggrPktReceived 	0
scalar Forest.networkOne[0].tranl 	"nbAggrPktSentDown " 	0
scalar Forest.networkOne[0].appl 	latency1 	0.0056336880571674
attr unit  s
statistic Forest.networkOne[0].appl 	1
field count 4899
field mean 0.0056336880571674
field stddev 0.004175144198771
field sum 27.599437792063
field sqrsum 0.24086772191012
field min 0.003232
field max 0.050601785605
scalar Forest.networkOne[0].appl 	latency2 	0.0056835440562454
attr unit  s
statistic Forest.networkOne[0].appl 	2
field count 4747
field mean 0.0056835440562454
field stddev 0.0041697095482928
field sum 26.979783634997
field sqrsum 0.23585701216294
field min 0.003232
field max 0.043076489059
scalar Forest.networkOne[0].appl 	latency3 	0.0055587990630275
attr unit  s
statistic Forest.networkOne[0].appl 	3
field count 4331
field mean 0.0055587990630275
field stddev 0.0039296453510456
field sum 24.075158741972
field sqrsum 0.20069331735013
field min 0.003232
field max 0.04708448192
scalar Forest.networkOne[0].appl 	latency4 	0.011105316406219
attr unit  s
statistic Forest.networkOne[0].appl 	4
field count 1420
field mean 0.011105316406219
field stddev 0.005284877061951
field sum 15.769549296831
field sqrsum 0.21475839889432
field min 0.006464
field max 0.064126514111
scalar Forest.networkOne[0].appl 	latency5 	0.0056034578481781
attr unit  s
statistic Forest.networkOne[0].appl 	5
field count 2443
field mean 0.0056034578481781
field stddev 0.0042570201737473
field sum 13.689247523099
field sqrsum 0.12096158456413
field min 0.003232
field max 0.050892182829
scalar Forest.networkOne[0].appl 	latency6 	0.011011966565778
attr unit  s
statistic Forest.networkOne[0].appl 	6
field count 1523
field mean 0.011011966565778
field stddev 0.0054078808258537
field sum 16.77122507968
field sqrsum 0.22919532623512
field min 0.006464
field max 0.053824
scalar Forest.networkOne[0].appl 	latency7 	0.005543421368169
attr unit  s
statistic Forest.networkOne[0].appl 	7
field count 1059
field mean 0.005543421368169
field stddev 0.0039599084732268
field sum 5.870483228891
field sqrsum 0.049132928045593
field min 0.003232
field max 0.046288532298
scalar Forest.networkOne[0].appl 	latency8 	0.01715244732962
attr unit  s
statistic Forest.networkOne[0].appl 	8
field count 108
field mean 0.01715244732962
field stddev 0.0069060563933588
field sum 1.852464311599
field sqrsum 0.036877513329886
field min 0.010016
field max 0.048736
scalar Forest.networkOne[0].appl 	latency9 	0.0057548188924198
attr unit  s
statistic Forest.networkOne[0].appl 	9
field count 4876
field mean 0.0057548188924198
field stddev 0.0046135819054239
field sum 28.060496919439
field sqrsum 0.26524812554319
field min 0.003232
field max 0.058939646816
scalar Forest.networkOne[0].appl 	latency10 	0.0057094998991224
attr unit  s
statistic Forest.networkOne[0].appl 	10
field count 4875
field mean 0.0057094998991224
field stddev 0.0045005177834894
field sum 27.833812008222
field sqrsum 0.2576383612504
field min 0.003232
field max 0.052147637705
scalar Forest.networkOne[0].appl 	latency11 	0.011057964404471
attr unit  s
statistic Forest.networkOne[0].appl 	11
field count 4775
field mean 0.011057964404471
field stddev 0.0057224010883249
field sum 52.801780031349
field sqrsum 0.74020900758494
field min 0.006464
field max 0.066122919109
scalar Forest.networkOne[0].appl 	latency12 	0.0056179731050107
attr unit  s
statistic Forest.networkOne[0].appl 	12
field count 4183
field mean 0.0056179731050107
field stddev 0.0040726711054025
field sum 23.49998149826
field sqrsum 0.20138763404436
field min 0.003232
field max 0.049403992045
scalar Forest.networkOne[0].appl 	latency13 	0.0056189030753104
attr unit  s
statistic Forest.networkOne[0].appl 	13
field count 3344
field mean 0.0056189030753104
field stddev 0.004198689700933
field sum 18.789611883838
field sqrsum 0.16451073896737
field min 0.003232
field max 0.049791921362
scalar Forest.networkOne[0].appl 	latency14 	0.011134787887838
attr unit  s
statistic Forest.networkOne[0].appl 	14
field count 1748
field mean 0.011134787887838
field stddev 0.0055228881825161
field sum 19.463609227941
field sqrsum 0.27001066768727
field min 0.006464
field max 0.061601785782
scalar Forest.networkOne[0].appl 	latency15 	0.0055279418764525
attr unit  s
statistic Forest.networkOne[0].appl 	15
field count 1609
field mean 0.0055279418764525
field stddev 0.0038496966131146
field sum 8.894458479212
field sqrsum 0.07299887322855
field min 0.003232
field max 0.044844717775
scalar Forest.networkOne[0].appl 	latency16 	0.011130577423269
attr unit  s
statistic Forest.networkOne[0].appl 	16
field count 1502
field mean 0.011130577423269
field stddev 0.0053120779699668
field sum 16.71812728975
field sqrsum 0.2284378868815
field min 0.006464
field max 0.056263608007
scalar Forest.networkOne[0].appl 	latency17 	0.016073081573523
attr unit  s
statistic Forest.networkOne[0].appl 	17
field count 966
field mean 0.016073081573523
field stddev 0.0057485346216235
field sum 15.526596800023
field sqrsum 0.28144930946161
field min 0.009696
field max 0.055495646646
scalar Forest.networkOne[0].appl 	latency18 	0.0056678483704863
attr unit  s
statistic Forest.networkOne[0].appl 	18
field count 4762
field mean 0.0056678483704863
field stddev 0.0042812354507307
field sum 26.990293940256
field sqrsum 0.24024115295188
field min 0.003232
field max 0.057588666782
scalar Forest.networkOne[0].appl 	latency19 	0.0056280146165984
attr unit  s
statistic Forest.networkOne[0].appl 	19
field count 4759
field mean 0.0056280146165984
field stddev 0.0042442129323301
field sum 26.783721560392
field sqrsum 0.23644666439716
field min 0.003232
field max 0.056629720233
scalar Forest.networkOne[0].appl 	latency20 	0.0055677873086736
attr unit  s
statistic Forest.networkOne[0].appl 	20
field count 4439
field mean 0.0055677873086736
field stddev 0.0039803752202101
field sum 24.715407863202
field sqrsum 0.2079230852635
field min 0.003232
field max 0.050682629094
scalar Forest.networkOne[0].appl 	latency21 	0.0056411596159228
attr unit  s
statistic Forest.networkOne[0].appl 	21
field count 3809
field mean 0.0056411596159228
field stddev 0.0042291864884201
field sum 21.48717697705
field sqrsum 0.18932255291452
field min 0.003232
field max 0.058483883333
scalar Forest.networkOne[0].appl 	latency22 	0.005421546219674
attr unit  s
statistic Forest.networkOne[0].appl 	22
field count 2960
field mean 0.005421546219674
field stddev 0.0034613985691994
field sum 16.047776810235
field sqrsum 0.12245637138202
field min 0.003232
field max 0.040785796925
scalar Forest.networkOne[0].appl 	latency23 	0.011256724889401
attr unit  s
statistic Forest.networkOne[0].appl 	23
field count 1695
field mean 0.011256724889401
field stddev 0.0058250264240535
field sum 19.080148687535
field sqrsum 0.27225898485697
field min 0.006464
field max 0.057700672907
scalar Forest.networkOne[0].appl 	latency24 	0.011194573819392
attr unit  s
statistic Forest.networkOne[0].appl 	24
field count 1701
field mean 0.011194573819392
field stddev 0.0055594802580881
field sum 19.041970066785
field sqrsum 0.26571003483739
field min 0.006464
field max 0.061317251881
scalar Forest.networkOne[0].appl 	latency25 	0.010911824705324
attr unit  s
statistic Forest.networkOne[0].appl 	25
field count 1387
field mean 0.010911824705324
field stddev 0.0051672003333424
field sum 15.134700866285
field sqrsum 0.20215334638929
field min 0.006464
field max 0.044864
scalar Forest.networkOne[0].appl 	latency26 	0.016354333891429
attr unit  s
statistic Forest.networkOne[0].appl 	26
field count 1260
field mean 0.016354333891429
field stddev 0.0062430681732154
field sum 20.606460703201
field sqrsum 0.38607559703198
field min 0.009696
field max 0.067318265579
scalar Forest.networkOne[0].appl 	latency27 	0.0056835005548257
attr unit  s
statistic Forest.networkOne[0].appl 	27
field count 4343
field mean 0.0056835005548257
field stddev 0.0044404554462892
field sum 24.683442909608
field sqrsum 0.22590237419679
field min 0.003232
field max 0.052604431493
scalar Forest.networkOne[0].appl 	latency28 	0.005673611276021
attr unit  s
statistic Forest.networkOne[0].appl 	28
field count 4232
field mean 0.005673611276021
field stddev 0.0044655238081776
field sum 24.010722920121
field sqrsum 0.22059746839622
field min 0.003232
field max 0.056873155938
scalar Forest.networkOne[0].appl 	latency29 	0.016284967829418
attr unit  s
statistic Forest.networkOne[0].appl 	29
field count 4546
field mean 0.016284967829418
field stddev 0.0064455398242696
field sum 74.031463752534
field sqrsum 1.394421956156
field min 0.009696
field max 0.069177847509
scalar Forest.networkOne[0].appl 	latency30 	0.0056510680753222
attr unit  s
statistic Forest.networkOne[0].appl 	30
field count 3181
field mean 0.0056510680753222
field stddev 0.0042052980024435
field sum 17.9760475476
field sqrsum 0.15782067791687
field min 0.003232
field max 0.05136626142
scalar Forest.networkOne[0].appl 	latency31 	0.011088781269467
attr unit  s
statistic Forest.networkOne[0].appl 	31
field count 1724
field mean 0.011088781269467
field stddev 0.0054858933958722
field sum 19.117058908561
field sqrsum 0.2638386151551
field min 0.006464
field max 0.06451478761
scalar Forest.networkOne[0].appl 	latency32 	0.0057445084945586
attr unit  s
statistic Forest.networkOne[0].appl 	32
field count 1819
field mean 0.0057445084945586
field stddev 0.003948062937996
field sum 10.449260951602
field sqrsum 0.088363399647939
field min 0.003232
field max 0.04268089686
scalar Forest.networkOne[0].appl 	latency33 	0.011311727123272
attr unit  s
statistic Forest.networkOne[0].appl 	33
field count 1627
field mean 0.011311727123272
field stddev 0.0060200132348277
field sum 18.404180029564
field sqrsum 0.26711021192104
field min 0.006464
field max 0.064068949887
scalar Forest.networkOne[0].appl 	latency34 	0.011081600349867
attr unit  s
statistic Forest.networkOne[0].appl 	34
field count 1687
field mean 0.011081600349867
field stddev 0.0053135006414333
field sum 18.694659790226
field sqrsum 0.25476807383816
field min 0.006464
field max 0.055637623268
scalar Forest.networkOne[0].appl 	latency35 	0.010973682491764
attr unit  s
statistic Forest.networkOne[0].appl 	35
field count 1532
field mean 0.010973682491764
field stddev 0.0052975878186258
field sum 16.811681577383
field sqrsum 0.2274527083645
field min 0.006464
field max 0.053420866197
scalar Forest.networkOne[0].appl 	latency36 	0.0056465998151948
attr unit  s
statistic Forest.networkOne[0].appl 	36
field count 3394
field mean 0.0056465998151948
field stddev 0.0042040010862175
field sum 19.164559772771
field sqrsum 0.16818120974721
field min 0.003232
field max 0.057001542164
scalar Forest.networkOne[0].appl 	latency37 	0.0056934384812929
attr unit  s
statistic Forest.networkOne[0].appl 	37
field count 3312
field mean 0.0056934384812929
field stddev 0.0042449258360854
field sum 18.856668250042
field sqrsum 0.16702149866041
field min 0.003232
field max 0.051171264082
scalar Forest.networkOne[0].appl 	latency38 	0.0055675609918466
attr unit  s
statistic Forest.networkOne[0].appl 	38
field count 2953
field mean 0.0055675609918466
field stddev 0.0038642878683355
field sum 16.441007608923
field sqrsum 0.13561770422318
field min 0.003232
field max 0.051378011901
scalar Forest.networkOne[0].appl 	latency39 	0.016508306966946
attr unit  s
statistic Forest.networkOne[0].appl 	39
field count 1385
field mean 0.016508306966946
field stddev 0.0068069243850162
field sum 22.86400514922
field sqrsum 0.44157257540048
field min 0.009696
field max 0.07934735225
scalar Forest.networkOne[0].appl 	latency40 	0.010742540294936
attr unit  s
statistic Forest.networkOne[0].appl 	40
field count 281
field mean 0.010742540294936
field stddev 0.005436784030769
field sum 3.018653822877
field sqrsum 0.040704424095942
field min 0.006464
field max 0.055949083003
scalar Forest.networkOne[0].appl 	latency41 	0.011482118779857
attr unit  s
statistic Forest.networkOne[0].appl 	41
field count 1775
field mean 0.011482118779857
field stddev 0.0060886490154228
field sum 20.380760834246
field sqrsum 0.29977941820443
field min 0.006464
field max 0.064529399914
scalar Forest.networkOne[0].appl 	latency42 	0.0052484375113348
attr unit  s
statistic Forest.networkOne[0].appl 	42
field count 938
field mean 0.0052484375113348
field stddev 0.0032515988714271
field sum 4.923034385632
field sqrsum 0.035745041160906
field min 0.003232
field max 0.037172574378
scalar Forest.networkOne[0].appl 	latency43 	0.011091968018299
attr unit  s
statistic Forest.networkOne[0].appl 	43
field count 1695
field mean 0.011091968018299
field stddev 0.0052688586284981
field sum 18.800885791017
field sqrsum 0.25556573980224
field min 0.006464
field max 0.061921504378
scalar Forest.networkOne[0].appl 	latency44 	0.01610541811442
attr unit  s
statistic Forest.networkOne[0].appl 	44
field count 1031
field mean 0.01610541811442
field stddev 0.0059966194175489
field sum 16.604686075967
field sqrsum 0.30446363968423
field min 0.009696
field max 0.064480762802
scalar Forest.networkOne[0].appl 	latency45 	0.011313915309056
attr unit  s
statistic Forest.networkOne[0].appl 	45
field count 540
field mean 0.011313915309056
field stddev 0.0064842129449037
field sum 6.10951426689
field sqrsum 0.091784791435568
field min 0.006464
field max 0.073453514007
scalar Forest.networkOne[0].appl 	latency46 	0.01107413103223
attr unit  s
statistic Forest.networkOne[0].appl 	46
field count 540
field mean 0.01107413103223
field stddev 0.0060790876034636
field sum 5.980030757404
field sqrsum 0.08614255416708
field min 0.006464
field max 0.066135621462
scalar Forest.networkOne[0].appl 	latency47 	0.016442497150217
attr unit  s
statistic Forest.networkOne[0].appl 	47
field count 1174
field mean 0.016442497150217
field stddev 0.0065859987883619
field sum 19.303491654355
field sqrsum 0.36827692730325
field min 0.009696
field max 0.070925726502
scalar Forest.networkOne[0].appl 	latency48 	0.0056783665357352
attr unit  s
statistic Forest.networkOne[0].appl 	48
field count 1771
field mean 0.0056783665357352
field stddev 0.0041162080998563
field sum 10.056387134787
field sqrsum 0.087093261521314
field min 0.003232
field max 0.047856826403
scalar Forest.networkOne[0].appl 	latency49 	0.010992550304946
attr unit  s
statistic Forest.networkOne[0].appl 	49
field count 3008
field mean 0.010992550304946
field stddev 0.0052625773305648
field sum 33.065591317279
field sqrsum 0.44675319943963
field min 0.006464
field max 0.052653818074
scalar Forest.networkOne[0].appl 	latency50 	0.010873356309572
attr unit  s
statistic Forest.networkOne[0].appl 	50
field count 2731
field mean 0.010873356309572
field stddev 0.005240068432933
field sum 29.695136081441
field sqrsum 0.39784700118111
field min 0.006464
field max 0.055236788417
scalar Forest.networkOne[0].appl 	latency51 	0.011309896074173
attr unit  s
statistic Forest.networkOne[0].appl 	51
field count 1571
field mean 0.011309896074173
field stddev 0.0056492654894142
field sum 17.767846732525
field sqrsum 0.25105779490141
field min 0.006464
field max 0.054391182872
scalar Forest.networkOne[0].appl 	latency52 	0.016307794111245
attr unit  s
statistic Forest.networkOne[0].appl 	52
field count 1571
field mean 0.016307794111245
field stddev 0.0063069191474647
field sum 25.619544548766
field sqrsum 0.48024850746342
field min 0.010016
field max 0.065397822501
scalar Forest.networkOne[0].appl 	latency53 	0.010565858336618
attr unit  s
statistic Forest.networkOne[0].appl 	53
field count 89
field mean 0.010565858336618
field stddev 0.0044412495510424
field sum 0.940361391959
field sqrsum 0.011671498639231
field min 0.006464
field max 0.029518872176
scalar Forest.networkOne[0].appl 	latency54 	0.0055747830759455
attr unit  s
statistic Forest.networkOne[0].appl 	54
field count 1668
field mean 0.0055747830759455
field stddev 0.0039603338701709
field sum 9.298738170677
field sqrsum 0.07798408353503
field min 0.003232
field max 0.044110737657
scalar Forest.networkOne[0].appl 	latency55 	0.0055676006213905
attr unit  s
statistic Forest.networkOne[0].appl 	55
field count 1575
field mean 0.0055676006213905
field stddev 0.0040376963623766
field sum 8.76897097869
field sqrsum 0.074483037543725
field min 0.003232
field max 0.045837591943
scalar Forest.networkOne[0].appl 	latency56 	0.010997474263012
attr unit  s
statistic Forest.networkOne[0].appl 	56
field count 585
field mean 0.010997474263012
field stddev 0.0050210825072871
field sum 6.433522443862
field sqrsum 0.085475878911153
field min 0.006464
field max 0.038144
scalar Forest.networkOne[0].appl 	latency57 	0.0056624291427978
attr unit  s
statistic Forest.networkOne[0].appl 	57
field count 1167
field mean 0.0056624291427978
field stddev 0.0042918293329836
field sum 6.608054809645
field sqrsum 0.058895127792692
field min 0.003232
field max 0.042272
scalar Forest.networkOne[0].appl 	latency58 	0.016453445291464
attr unit  s
statistic Forest.networkOne[0].appl 	58
field count 1522
field mean 0.016453445291464
field stddev 0.0062644348775796
field sum 25.042143733608
field sqrsum 0.47171836443609
field min 0.009696
field max 0.063306676135
scalar Forest.networkOne[0].appl 	latency59 	0.0055478321706211
attr unit  s
statistic Forest.networkOne[0].appl 	59
field count 710
field mean 0.0055478321706211
field stddev 0.0039974342328426
field sum 3.938960841141
field sqrsum 0.033182145309443
field min 0.003232
field max 0.040352
scalar Forest.networkOne[0].appl 	latency60 	0.010964525317849
attr unit  s
statistic Forest.networkOne[0].appl 	60
field count 252
field mean 0.010964525317849
field stddev 0.0052753463992686
field sum 2.763060380098
field sqrsum 0.037280794680032
field min 0.006464
field max 0.046973114964
scalar Forest.networkOne[0].appl 	latency61 	0.011065129195118
attr unit  s
statistic Forest.networkOne[0].appl 	61
field count 1299
field mean 0.011065129195118
field stddev 0.0053775859140616
field sum 14.373602824458
field sqrsum 0.19658189473346
field min 0.006464
field max 0.064788483871
scalar Forest.networkOne[0].appl 	latency62 	0.0053195091507852
attr unit  s
statistic Forest.networkOne[0].appl 	62
field count 270
field mean 0.0053195091507852
field stddev 0.0034518093113184
field sum 1.436267470712
field sqrsum 0.010845369596766
field min 0.003232
field max 0.0348681877
scalar Forest.networkOne[0].appl 	latency63 	0.010929509240369
attr unit  s
statistic Forest.networkOne[0].appl 	63
field count 631
field mean 0.010929509240369
field stddev 0.0052420606426904
field sum 6.896520330673
field sqrsum 0.09268747854292
field min 0.006464
field max 0.051045779649
scalar Forest.networkOne[0].appl 	latency64 	0.0056379059350637
attr unit  s
statistic Forest.networkOne[0].appl 	64
field count 1021
field mean 0.0056379059350637
field stddev 0.0041491444509369
field sum 5.7563019597
field sqrsum 0.050013196650847
field min 0.003232
field max 0.061897711406
scalar Forest.networkOne[0].appl 	latency65 	0.010690565280654
attr unit  s
statistic Forest.networkOne[0].appl 	65
field count 628
field mean 0.010690565280654
field stddev 0.0042884159289961
field sum 6.713674996251
field sqrsum 0.083303831330421
field min 0.006464
field max 0.038799343246
scalar Forest.networkOne[0].appl 	latency66 	0.011186413014082
attr unit  s
statistic Forest.networkOne[0].appl 	66
field count 612
field mean 0.011186413014082
field stddev 0.0056010937566162
field sum 6.846084764618
field sqrsum 0.095751577232646
field min 0.006464
field max 0.059786668233
scalar Forest.networkOne[0].appl 	latency67 	0.011004430588713
attr unit  s
statistic Forest.networkOne[0].appl 	67
field count 534
field mean 0.011004430588713
field stddev 0.004908435796979
field sum 5.876365934373
field sqrsum 0.077507492510332
field min 0.006464
field max 0.050875006131
scalar Forest.networkOne[0].appl 	latency68 	0.016857375673412
attr unit  s
statistic Forest.networkOne[0].appl 	68
field count 1542
field mean 0.016857375673412
field stddev 0.0068587018628712
field sum 25.994073288402
field sqrsum 0.51068325901143
field min 0.009696
field max 0.056334252306
scalar Forest.networkOne[0].appl 	latency69 	0.010683310145061
attr unit  s
statistic Forest.networkOne[0].appl 	69
field count 312
field mean 0.010683310145061
field stddev 0.0043266606446771
field sum 3.333192765259
field sqrsum 0.04143144970047
field min 0.006464
field max 0.037489968729
scalar Forest.networkOne[0].appl 	latency70 	0.015844609110505
attr unit  s
statistic Forest.networkOne[0].appl 	70
field count 483
field mean 0.015844609110505
field stddev 0.0054223596586057
field sum 7.652946200374
field sqrsum 0.13542969750548
field min 0.009696
field max 0.049215805937
scalar Forest.networkOne[0].appl 	latency71 	0.011059544420985
attr unit  s
statistic Forest.networkOne[0].appl 	71
field count 262
field mean 0.011059544420985
field stddev 0.0056921792592453
field sum 2.897600638298
field sqrsum 0.040502779105289
field min 0.006464
field max 0.060572637223
scalar Forest.networkOne[0].appl 	latency72 	0.011200924973889
attr unit  s
statistic Forest.networkOne[0].appl 	72
field count 615
field mean 0.011200924973889
field stddev 0.0064323693061607
field sum 6.888568858942
field sqrsum 0.10256282314946
field min 0.006464
field max 0.056715897371
scalar Forest.networkOne[0].appl 	latency73 	0.0056242590044579
attr unit  s
statistic Forest.networkOne[0].appl 	73
field count 605
field mean 0.0056242590044579
field stddev 0.0037353849850595
field sum 3.402676697697
field sqrsum 0.027565208052193
field min 0.003232
field max 0.042356801034
scalar Forest.networkOne[0].appl 	latency74 	0.011008961192662
attr unit  s
statistic Forest.networkOne[0].appl 	74
field count 1111
field mean 0.011008961192662
field stddev 0.0055815603375067
field sum 12.230955885048
field sqrsum 0.16923085422702
field min 0.006464
field max 0.066650701528
scalar Forest.networkOne[0].appl 	latency75 	0.01078883118399
attr unit  s
statistic Forest.networkOne[0].appl 	75
field count 1170
field mean 0.01078883118399
field stddev 0.0050540476030114
field sum 12.622932485268
field sqrsum 0.16604691892628
field min 0.006464
field max 0.058728851928
scalar Forest.networkOne[0].appl 	latency76 	0.010955667401949
attr unit  s
statistic Forest.networkOne[0].appl 	76
field count 1173
field mean 0.010955667401949
field stddev 0.0053909284720846
field sum 12.850997862486
field sqrsum 0.17485205103976
field min 0.006464
field max 0.065296106862
scalar Forest.networkOne[0].appl 	latency77 	0.01626765684675
attr unit  s
statistic Forest.networkOne[0].appl 	77
field count 529
field mean 0.01626765684675
field stddev 0.0057461791373486
field sum 8.605590471931
field sqrsum 0.15742660019129
field min 0.010336
field max 0.047897012048
scalar Forest.networkOne[0].appl 	latency78 	0.011310948020413
attr unit  s
statistic Forest.networkOne[0].appl 	78
field count 305
field mean 0.011310948020413
field stddev 0.0055361851747421
field sum 3.449839146226
field sqrsum 0.048338352533615
field min 0.006464
field max 0.043326088403
scalar Forest.networkOne[0].appl 	latency79 	0.01109658030098
attr unit  s
statistic Forest.networkOne[0].appl 	79
field count 246
field mean 0.01109658030098
field stddev 0.0063651596128222
field sum 2.729758754041
field sqrsum 0.04021722515621
field min 0.006464
field max 0.0636154125
scalar Forest.networkOne[0].appl 	latency80 	0.011358332408812
attr unit  s
statistic Forest.networkOne[0].appl 	80
field count 650
field mean 0.011358332408812
field stddev 0.0057757983434767
field sum 7.382916065728
field sqrsum 0.10550815520233
field min 0.006464
field max 0.070481860426
scalar Forest.networkOne[0].appl 	"activity duration" 	4999.9141517455
attr unit  s
scalar Forest.networkOne[0].appl 	firstPacketGeneration 	10.018789798021
attr unit  s
scalar Forest.networkOne[0].appl 	lastPacketReception 	5009.9329415435
attr unit  s
scalar Forest.networkOne[0].appl 	nbPacketsSent 	5000
scalar Forest.networkOne[0].appl 	nbPacketsReceived 	151107
statistic Forest.networkOne[0].appl 	latency
field count 151107
field mean 0.0083956963207785
field stddev 0.0060969009900188
field sum 1268.6484839439
field sqrsum 16.268130116383
field min 0.003232
field max 0.07934735225
scalar Forest.networkOne[0].batteryStats 	nominal 	10800000
attr unit  mW-s
scalar Forest.networkOne[0].batteryStats 	total 	282540.89249088
attr unit  mW-s
scalar Forest.networkOne[0].batteryStats 	lifetime 	-1
attr unit  s
scalar Forest.networkOne[0].batteryStats 	"Mean power consumption" 	56.395314114301
attr unit  mW
scalar Forest.networkOne[0].batteryStats 	"num devices" 	1
scalar Forest.networkOne[0].batteryStats 	"physical layer" 	0
scalar Forest.networkOne[0].batteryStats 	"device total (mWs)" 	282540.89248885
scalar Forest.networkOne[0].batteryStats 	account 	0
scalar Forest.networkOne[0].batteryStats 	"energy (mWs)" 	0
scalar Forest.networkOne[0].batteryStats 	"time (s)" 	0
scalar Forest.networkOne[0].batteryStats 	"account 0" 	0
scalar Forest.networkOne[0].batteryStats 	account 	1
scalar Forest.networkOne[0].batteryStats 	"energy (mWs)" 	282141.02228725
scalar Forest.networkOne[0].batteryStats 	"time (s)" 	5002.5003951645
scalar Forest.networkOne[0].batteryStats 	"account 1" 	282141.02228725
scalar Forest.networkOne[0].batteryStats 	account 	2
scalar Forest.networkOne[0].batteryStats 	"energy (mWs)" 	291.77711999998
scalar Forest.networkOne[0].batteryStats 	"time (s)" 	5.5896
scalar Forest.networkOne[0].batteryStats 	"account 2" 	291.77711999998
scalar Forest.networkOne[0].batteryStats 	account 	3
scalar Forest.networkOne[0].batteryStats 	"energy (mWs)" 	108.09308159999
scalar Forest.networkOne[0].batteryStats 	"time (s)" 	1.916544
scalar Forest.networkOne[0].batteryStats 	"account 3" 	108.09308159999
scalar Forest.networkOne[0].batteryStats 	account 	4
scalar Forest.networkOne[0].batteryStats 	"energy (mWs)" 	0
scalar Forest.networkOne[0].batteryStats 	"time (s)" 	0
scalar Forest.networkOne[0].batteryStats 	"account 4" 	0
scalar Forest.networkOne[1].nic.mac 	nbTxFrames 	19341
scalar Forest.networkOne[1].nic.mac 	nbRxFrames 	43886
scalar Forest.networkOne[1].nic.mac 	nbDroppedFrames 	1541
scalar Forest.networkOne[1].nic.mac 	nbMissedAcks 	0
scalar Forest.networkOne[1].nic.mac 	nbRecvdAcks 	0
scalar Forest.networkOne[1].nic.mac 	nbTxAcks 	0
scalar Forest.networkOne[1].nic.mac 	nbDuplicates 	0
scalar Forest.networkOne[1].nic.mac 	meanBackoff 	0.0022625097463134
scalar Forest.networkOne[1].nic.mac 	nbBackoffs 	35398
scalar Forest.networkOne[1].nic.mac 	backoffDurations 	80.088320000003
scalar Forest.networkOne[1].nic.phy 	nbFramesWithInterference 	36781
scalar Forest.networkOne[1].nic.phy 	nbFramesWithoutInterference 	264183
scalar Forest.networkOne[1].nic.phy 	nbFramesWithInterferencePartial 	13488
scalar Forest.networkOne[1].nic.phy 	nbFramesWithoutInterferencePartial 	3347
scalar Forest.networkOne[1].nic.phy 	nbFramesWithInterferenceDropped 	12155
scalar Forest.networkOne[1].nic.phy 	nbFramesWithoutInterferenceDropped 	45757
scalar Forest.networkOne[1].netwl 	nbDataPacketsForwarded 	15882
scalar Forest.networkOne[1].netwl 	nbDataPacketsReceived 	0
scalar Forest.networkOne[1].netwl 	nbDataPacketsSent 	5000
scalar Forest.networkOne[1].netwl 	nbDuplicatedFloodsReceived 	50572
scalar Forest.networkOne[1].netwl 	nbFloodsSent 	0
scalar Forest.networkOne[1].netwl 	nbPureUnicastSent 	5000
scalar Forest.networkOne[1].netwl 	nbRouteFloodsSent 	0
scalar Forest.networkOne[1].netwl 	nbRouteFloodsReceived 	5
scalar Forest.networkOne[1].netwl 	nbUnicastFloodForwarded 	4971
scalar Forest.networkOne[1].netwl 	nbPureUnicastForwarded 	10906
scalar Forest.networkOne[1].netwl 	nbGetRouteFailures 	0
scalar Forest.networkOne[1].netwl 	nbRoutesRecorded 	1
scalar Forest.networkOne[1].netwl 	meanNbHops 	-nan
scalar Forest.networkOne[1].tranl 	nbAggrPktReceived 	0
scalar Forest.networkOne[1].tranl 	"nbAggrPktSentDown " 	0
scalar Forest.networkOne[1].appl 	"activity duration" 	-1
attr unit  s
scalar Forest.networkOne[1].appl 	firstPacketGeneration 	-1
attr unit  s
scalar Forest.networkOne[1].appl 	lastPacketReception 	-2
attr unit  s
scalar Forest.networkOne[1].appl 	nbPacketsSent 	5000
scalar Forest.networkOne[1].appl 	nbPacketsReceived 	0
statistic Forest.networkOne[1].appl 	latency
field count 0
field mean 0
field stddev -nan
field sum 0
field sqrsum 0
field min 0
field max 0
scalar Forest.networkOne[1].batteryStats 	nominal 	10800000
attr unit  mW-s
scalar Forest.networkOne[1].batteryStats 	total 	282473.38982831
attr unit  mW-s
scalar Forest.networkOne[1].batteryStats 	lifetime 	-1
attr unit  s
scalar Forest.networkOne[1].batteryStats 	"Mean power consumption" 	56.381840546544
attr unit  mW
scalar Forest.networkOne[1].batteryStats 	"num devices" 	1
scalar Forest.networkOne[1].batteryStats 	"physical layer" 	0
scalar Forest.networkOne[1].batteryStats 	"device total (mWs)" 	282473.38981997
scalar Forest.networkOne[1].batteryStats 	account 	0
scalar Forest.networkOne[1].batteryStats 	"energy (mWs)" 	0
scalar Forest.networkOne[1].batteryStats 	"time (s)" 	0
scalar Forest.networkOne[1].batteryStats 	"account 0" 	0
scalar Forest.networkOne[1].batteryStats 	account 	1
scalar Forest.networkOne[1].batteryStats 	"energy (mWs)" 	280923.77131757
scalar Forest.networkOne[1].batteryStats 	"time (s)" 	4980.9179311645
scalar Forest.networkOne[1].batteryStats 	"account 1" 	280923.77131757
scalar Forest.networkOne[1].batteryStats 	account 	2
scalar Forest.networkOne[1].batteryStats 	"energy (mWs)" 	1130.7388607996
scalar Forest.networkOne[1].batteryStats 	"time (s)" 	21.661664
scalar Forest.networkOne[1].batteryStats 	"account 2" 	1130.7388607996
scalar Forest.networkOne[1].batteryStats 	account 	3
scalar Forest.networkOne[1].batteryStats 	"energy (mWs)" 	418.87964160034
scalar Forest.networkOne[1].batteryStats 	"time (s)" 	7.426944
scalar Forest.networkOne[1].batteryStats 	"account 3" 	418.87964160034
scalar Forest.networkOne[1].batteryStats 	account 	4
scalar Forest.networkOne[1].batteryStats 	"energy (mWs)" 	0
scalar Forest.networkOne[1].batteryStats 	"time (s)" 	0
scalar Forest.networkOne[1].batteryStats 	"account 4" 	0
scalar Forest.networkOne[2].nic.mac 	nbTxFrames 	8415
scalar Forest.networkOne[2].nic.mac 	nbRxFrames 	36316
scalar Forest.networkOne[2].nic.mac 	nbDroppedFrames 	1522
scalar Forest.networkOne[2].nic.mac 	nbMissedAcks 	0
scalar Forest.networkOne[2].nic.mac 	nbRecvdAcks 	0
scalar Forest.networkOne[2].nic.mac 	nbTxAcks 	0
scalar Forest.networkOne[2].nic.mac 	nbDuplicates 	0
scalar Forest.networkOne[2].nic.mac 	meanBackoff 	0.002731365102114
scalar Forest.networkOne[2].nic.mac 	nbBackoffs 	22328
scalar Forest.networkOne[2].nic.mac 	backoffDurations 	60.985920000001
scalar Forest.networkOne[2].nic.phy 	nbFramesWithInterference 	39100
scalar Forest.networkOne[2].nic.phy 	nbFramesWithoutInterference 	313761
scalar Forest.networkOne[2].nic.phy 	nbFramesWithInterferencePartial 	15481
scalar Forest.networkOne[2].nic.phy 	nbFramesWithoutInterferencePartial 	3323
scalar Forest.networkOne[2].nic.phy 	nbFramesWithInterferenceDropped 	12225
scalar Forest.networkOne[2].nic.phy 	nbFramesWithoutInterferenceDropped 	44714
scalar Forest.networkOne[2].netwl 	nbDataPacketsForwarded 	4975
scalar Forest.networkOne[2].netwl 	nbDataPacketsReceived 	0
scalar Forest.networkOne[2].netwl 	nbDataPacketsSent 	4962
scalar Forest.networkOne[2].netwl 	nbDuplicatedFloodsReceived 	54331
scalar Forest.networkOne[2].netwl 	nbFloodsSent 	0
scalar Forest.networkOne[2].netwl 	nbPureUnicastSent 	4962
scalar Forest.networkOne[2].netwl 	nbRouteFloodsSent 	0
scalar Forest.networkOne[2].netwl 	nbRouteFloodsReceived 	5
scalar Forest.networkOne[2].netwl 	nbUnicastFloodForwarded 	4970
scalar Forest.networkOne[2].netwl 	nbPureUnicastForwarded 	0
scalar Forest.networkOne[2].netwl 	nbGetRouteFailures 	0
scalar Forest.networkOne[2].netwl 	nbRoutesRecorded 	1
scalar Forest.networkOne[2].netwl 	meanNbHops 	-nan
scalar Forest.networkOne[2].tranl 	nbAggrPktReceived 	0
scalar Forest.networkOne[2].tranl 	"nbAggrPktSentDown " 	0
scalar Forest.networkOne[2].appl 	"activity duration" 	-1
attr unit  s
scalar Forest.networkOne[2].appl 	firstPacketGeneration 	-1
attr unit  s
scalar Forest.networkOne[2].appl 	lastPacketReception 	-2
attr unit  s
scalar Forest.networkOne[2].appl 	nbPacketsSent 	4962
scalar Forest.networkOne[2].appl 	nbPacketsReceived 	0
statistic Forest.networkOne[2].appl 	latency
field count 0
field mean 0
field stddev -nan
field sum 0
field sqrsum 0
field min 0
field max 0
scalar Forest.networkOne[2].batteryStats 	nominal 	10800000
attr unit  mW-s
scalar Forest.networkOne[2].batteryStats 	total 	282524.78599649
attr unit  mW-s
scalar Forest.networkOne[2].batteryStats 	lifetime 	-1
attr unit  s
scalar Forest.networkOne[2].batteryStats 	"Mean power consumption" 	56.392099249356
attr unit  mW
scalar Forest.networkOne[2].batteryStats 	"num devices" 	1
scalar Forest.networkOne[2].batteryStats 	"physical layer" 	0
scalar Forest.networkOne[2].batteryStats 	"device total (mWs)" 	282524.78599283
scalar Forest.networkOne[2].batteryStats 	account 	0
scalar Forest.networkOne[2].batteryStats 	"energy (mWs)" 	0
scalar Forest.networkOne[2].batteryStats 	"time (s)" 	0
scalar Forest.networkOne[2].batteryStats 	"account 0" 	0
scalar Forest.networkOne[2].batteryStats 	account 	1
scalar Forest.networkOne[2].batteryStats 	"energy (mWs)" 	281850.57943283
scalar Forest.networkOne[2].batteryStats 	"time (s)" 	4997.3506991645
scalar Forest.networkOne[2].batteryStats 	"account 1" 	281850.57943283
scalar Forest.networkOne[2].batteryStats 	account 	2
scalar Forest.networkOne[2].batteryStats 	"energy (mWs)" 	491.95785600003
scalar Forest.networkOne[2].batteryStats 	"time (s)" 	9.42448
scalar Forest.networkOne[2].batteryStats 	"account 2" 	491.95785600003
scalar Forest.networkOne[2].batteryStats 	account 	3
scalar Forest.networkOne[2].batteryStats 	"energy (mWs)" 	182.24870400005
scalar Forest.networkOne[2].batteryStats 	"time (s)" 	3.23136
scalar Forest.networkOne[2].batteryStats 	"account 3" 	182.24870400005
scalar Forest.networkOne[2].batteryStats 	account 	4
scalar Forest.networkOne[2].batteryStats 	"energy (mWs)" 	0
scalar Forest.networkOne[2].batteryStats 	"time (s)" 	0
scalar Forest.networkOne[2].batteryStats 	"account 4" 	0
scalar Forest.networkOne[3].nic.mac 	nbTxFrames 	8488
scalar Forest.networkOne[3].nic.mac 	nbRxFrames 	37290
scalar Forest.networkOne[3].nic.mac 	nbDroppedFrames 	1487
scalar Forest.networkOne[3].nic.mac 	nbMissedAcks 	0
scalar Forest.networkOne[3].nic.mac 	nbRecvdAcks 	0
scalar Forest.networkOne[3].nic.mac 	nbTxAcks 	0
scalar Forest.networkOne[3].nic.mac 	nbDuplicates 	0
scalar Forest.networkOne[3].nic.mac 	meanBackoff 	0.0027114569744951
scalar Forest.networkOne[3].nic.mac 	nbBackoffs 	22231
scalar Forest.networkOne[3].nic.mac 	backoffDurations 	60.278400000001
scalar Forest.networkOne[3].nic.phy 	nbFramesWithInterference 	39231
scalar Forest.networkOne[3].nic.phy 	nbFramesWithoutInterference 	342834
scalar Forest.networkOne[3].nic.phy 	nbFramesWithInterferencePartial 	17985
scalar Forest.networkOne[3].nic.phy 	nbFramesWithoutInterferencePartial 	3103
scalar Forest.networkOne[3].nic.phy 	nbFramesWithInterferenceDropped 	12259
scalar Forest.networkOne[3].nic.phy 	nbFramesWithoutInterferenceDropped 	42489
scalar Forest.networkOne[3].netwl 	nbDataPacketsForwarded 	4975
scalar Forest.networkOne[3].netwl 	nbDataPacketsReceived 	0
scalar Forest.networkOne[3].netwl 	nbDataPacketsSent 	5000
scalar Forest.networkOne[3].netwl 	nbDuplicatedFloodsReceived 	55314
scalar Forest.networkOne[3].netwl 	nbFloodsSent 	0
scalar Forest.networkOne[3].netwl 	nbPureUnicastSent 	5000
scalar Forest.networkOne[3].netwl 	nbRouteFloodsSent 	0
scalar Forest.networkOne[3].netwl 	nbRouteFloodsReceived 	5
scalar Forest.networkOne[3].netwl 	nbUnicastFloodForwarded 	4970
scalar Forest.networkOne[3].netwl 	nbPureUnicastForwarded 	0
scalar Forest.networkOne[3].netwl 	nbGetRouteFailures 	0
scalar Forest.networkOne[3].netwl 	nbRoutesRecorded 	1
scalar Forest.networkOne[3].netwl 	meanNbHops 	-nan
scalar Forest.networkOne[3].tranl 	nbAggrPktReceived 	0
scalar Forest.networkOne[3].tranl 	"nbAggrPktSentDown " 	0
scalar Forest.networkOne[3].appl 	"activity duration" 	-1
attr unit  s
scalar Forest.networkOne[3].appl 	firstPacketGeneration 	-1
attr unit  s
scalar Forest.networkOne[3].appl 	lastPacketReception 	-2
attr unit  s
scalar Forest.networkOne[3].appl 	nbPacketsSent 	5000
scalar Forest.networkOne[3].appl 	nbPacketsReceived 	0
statistic Forest.networkOne[3].appl 	latency
field count 0
field mean 0
field stddev -nan
field sum 0
field sqrsum 0
field min 0
field max 0
scalar Forest.networkOne[3].batteryStats 	nominal 	10800000
attr unit  mW-s
scalar Forest.networkOne[3].batteryStats 	total 	282524.44260445
attr unit  mW-s
scalar Forest.networkOne[3].batteryStats 	lifetime 	-1
attr unit  s
scalar Forest.networkOne[3].batteryStats 	"Mean power consumption" 	56.392030708122
attr unit  mW
scalar Forest.networkOne[3].batteryStats 	"num devices" 	1
scalar Forest.networkOne[3].batteryStats 	"physical layer" 	0
scalar Forest.networkOne[3].batteryStats 	"device total (mWs)" 	282524.44260083
scalar Forest.networkOne[3].batteryStats 	account 	0
scalar Forest.networkOne[3].batteryStats 	"energy (mWs)" 	0
scalar Forest.networkOne[3].batteryStats 	"time (s)" 	0
scalar Forest.networkOne[3].batteryStats 	"account 0" 	0
scalar Forest.networkOne[3].batteryStats 	account 	1
scalar Forest.networkOne[3].batteryStats 	"energy (mWs)" 	281844.38716403
scalar Forest.networkOne[3].batteryStats 	"time (s)" 	4997.2409071645
scalar Forest.networkOne[3].batteryStats 	"account 1" 	281844.38716403
scalar Forest.networkOne[3].batteryStats 	account 	2
scalar Forest.networkOne[3].batteryStats 	"energy (mWs)" 	496.22572800003
scalar Forest.networkOne[3].batteryStats 	"time (s)" 	9.50624
scalar Forest.networkOne[3].batteryStats 	"account 2" 	496.22572800003
scalar Forest.networkOne[3].batteryStats 	account 	3
scalar Forest.networkOne[3].batteryStats 	"energy (mWs)" 	183.82970880005
scalar Forest.networkOne[3].batteryStats 	"time (s)" 	3.259392
scalar Forest.networkOne[3].batteryStats 	"account 3" 	183.82970880005
scalar Forest.networkOne[3].batteryStats 	account 	4
scalar Forest.networkOne[3].batteryStats 	"energy (mWs)" 	0
scalar Forest.networkOne[3].batteryStats 	"time (s)" 	0
scalar Forest.networkOne[3].batteryStats 	"account 4" 	0
scalar Forest.networkOne[4].nic.mac 	nbTxFrames 	8528
scalar Forest.networkOne[4].nic.mac 	nbRxFrames 	36900
scalar Forest.networkOne[4].nic.mac 	nbDroppedFrames 	1420
scalar Forest.networkOne[4].nic.mac 	nbMissedAcks 	0
scalar Forest.networkOne[4].nic.mac 	nbRecvdAcks 	0
scalar Forest.networkOne[4].nic.mac 	nbTxAcks 	0
scalar Forest.networkOne[4].nic.mac 	nbDuplicates 	0
scalar Forest.networkOne[4].nic.mac 	meanBackoff 	0.0027153027918896
scalar Forest.networkOne[4].nic.mac 	nbBackoffs 	22243
scalar Forest.networkOne[4].nic.mac 	backoffDurations 	60.396480000001
scalar Forest.networkOne[4].nic.phy 	nbFramesWithInterference 	38040
scalar Forest.networkOne[4].nic.phy 	nbFramesWithoutInterference 	356054
scalar Forest.networkOne[4].nic.phy 	nbFramesWithInterferencePartial 	19743
scalar Forest.networkOne[4].nic.phy 	nbFramesWithoutInterferencePartial 	2909
scalar Forest.networkOne[4].nic.phy 	nbFramesWithInterferenceDropped 	12410
scalar Forest.networkOne[4].nic.phy 	nbFramesWithoutInterferenceDropped 	40795
scalar Forest.networkOne[4].netwl 	nbDataPacketsForwarded 	4975
scalar Forest.networkOne[4].netwl 	nbDataPacketsReceived 	0
scalar Forest.networkOne[4].netwl 	nbDataPacketsSent 	4973
scalar Forest.networkOne[4].netwl 	nbDuplicatedFloodsReceived 	54535
scalar Forest.networkOne[4].netwl 	nbFloodsSent 	0
scalar Forest.networkOne[4].netwl 	nbPureUnicastSent 	4973
scalar Forest.networkOne[4].netwl 	nbRouteFloodsSent 	0
scalar Forest.networkOne[4].netwl 	nbRouteFloodsReceived 	5
scalar Forest.networkOne[4].netwl 	nbUnicastFloodForwarded 	4970
scalar Forest.networkOne[4].netwl 	nbPureUnicastForwarded 	0
scalar Forest.networkOne[4].netwl 	nbGetRouteFailures 	0
scalar Forest.networkOne[4].netwl 	nbRoutesRecorded 	1
scalar Forest.networkOne[4].netwl 	meanNbHops 	-nan
scalar Forest.networkOne[4].tranl 	nbAggrPktReceived 	0
scalar Forest.networkOne[4].tranl 	"nbAggrPktSentDown " 	0
scalar Forest.networkOne[4].appl 	"activity duration" 	-1
attr unit  s
scalar Forest.networkOne[4].appl 	firstPacketGeneration 	-1
attr unit  s
scalar Forest.networkOne[4].appl 	lastPacketReception 	-2
attr unit  s
scalar Forest.networkOne[4].appl 	nbPacketsSent 	4974
scalar Forest.networkOne[4].appl 	nbPacketsReceived 	0
statistic Forest.networkOne[4].appl 	latency
field count 0
field mean 0
field stddev -nan
field sum 0
field sqrsum 0
field min 0
field max 0
scalar Forest.networkOne[4].batteryStats 	nominal 	10800000
attr unit  mW-s
scalar Forest.networkOne[4].batteryStats 	total 	282524.25444458
attr unit  mW-s
scalar Forest.networkOne[4].batteryStats 	lifetime 	-1
attr unit  s
scalar Forest.networkOne[4].batteryStats 	"Mean power consumption" 	56.391993151309
attr unit  mW
scalar Forest.networkOne[4].batteryStats 	"num devices" 	1
scalar Forest.networkOne[4].batteryStats 	"physical layer" 	0
scalar Forest.networkOne[4].batteryStats 	"device total (mWs)" 	282524.25444083
scalar Forest.networkOne[4].batteryStats 	account 	0
scalar Forest.networkOne[4].batteryStats 	"energy (mWs)" 	0
scalar Forest.networkOne[4].batteryStats 	"time (s)" 	0
scalar Forest.networkOne[4].batteryStats 	"account 0" 	0
scalar Forest.networkOne[4].batteryStats 	account 	1
scalar Forest.networkOne[4].batteryStats 	"energy (mWs)" 	281840.99414003
scalar Forest.networkOne[4].batteryStats 	"time (s)" 	4997.1807471645
scalar Forest.networkOne[4].batteryStats 	"account 1" 	281840.99414003
scalar Forest.networkOne[4].batteryStats 	account 	2
scalar Forest.networkOne[4].batteryStats 	"energy (mWs)" 	498.56428800003
scalar Forest.networkOne[4].batteryStats 	"time (s)" 	9.55104
scalar Forest.networkOne[4].batteryStats 	"account 2" 	498.56428800003
scalar Forest.networkOne[4].batteryStats 	account 	3
scalar Forest.networkOne[4].batteryStats 	"energy (mWs)" 	184.69601280006
scalar Forest.networkOne[4].batteryStats 	"time (s)" 	3.274752
scalar Forest.networkOne[4].batteryStats 	"account 3" 	184.69601280006
scalar Forest.networkOne[4].batteryStats 	account 	4
scalar Forest.networkOne[4].batteryStats 	"energy (mWs)" 	0
scalar Forest.networkOne[4].batteryStats 	"time (s)" 	0
scalar Forest.networkOne[4].batteryStats 	"account 4" 	0
scalar Forest.networkOne[5].nic.mac 	nbTxFrames 	8450
scalar Forest.networkOne[5].nic.mac 	nbRxFrames 	35311
scalar Forest.networkOne[5].nic.mac 	nbDroppedFrames 	1411
scalar Forest.networkOne[5].nic.mac 	nbMissedAcks 	0
scalar Forest.networkOne[5].nic.mac 	nbRecvdAcks 	0
scalar Forest.networkOne[5].nic.mac 	nbTxAcks 	0
scalar Forest.networkOne[5].nic.mac 	nbDuplicates 	0
scalar Forest.networkOne[5].nic.mac 	meanBackoff 	0.0027171990772154
scalar Forest.networkOne[5].nic.mac 	nbBackoffs 	22107
scalar Forest.networkOne[5].nic.mac 	backoffDurations 	60.069120000001
scalar Forest.networkOne[5].nic.phy 	nbFramesWithInterference 	36649
scalar Forest.networkOne[5].nic.phy 	nbFramesWithoutInterference 	352273
scalar Forest.networkOne[5].nic.phy 	nbFramesWithInterferencePartial 	20907
scalar Forest.networkOne[5].nic.phy 	nbFramesWithoutInterferencePartial 	2963
scalar Forest.networkOne[5].nic.phy 	nbFramesWithInterferenceDropped 	11971
scalar Forest.networkOne[5].nic.phy 	nbFramesWithoutInterferenceDropped 	41096
scalar Forest.networkOne[5].netwl 	nbDataPacketsForwarded 	4975
scalar Forest.networkOne[5].netwl 	nbDataPacketsReceived 	0
scalar Forest.networkOne[5].netwl 	nbDataPacketsSent 	4886
scalar Forest.networkOne[5].netwl 	nbDuplicatedFloodsReceived 	52797
scalar Forest.networkOne[5].netwl 	nbFloodsSent 	0
scalar Forest.networkOne[5].netwl 	nbPureUnicastSent 	4886
scalar Forest.networkOne[5].netwl 	nbRouteFloodsSent 	0
scalar Forest.networkOne[5].netwl 	nbRouteFloodsReceived 	5
scalar Forest.networkOne[5].netwl 	nbUnicastFloodForwarded 	4970
scalar Forest.networkOne[5].netwl 	nbPureUnicastForwarded 	0
scalar Forest.networkOne[5].netwl 	nbGetRouteFailures 	0
scalar Forest.networkOne[5].netwl 	nbRoutesRecorded 	1
scalar Forest.networkOne[5].netwl 	meanNbHops 	-nan
scalar Forest.networkOne[5].tranl 	nbAggrPktReceived 	0
scalar Forest.networkOne[5].tranl 	"nbAggrPktSentDown " 	0
scalar Forest.networkOne[5].appl 	"activity duration" 	-1
attr unit  s
scalar Forest.networkOne[5].appl 	firstPacketGeneration 	-1
attr unit  s
scalar Forest.networkOne[5].appl 	lastPacketReception 	-2
attr unit  s
scalar Forest.networkOne[5].appl 	nbPacketsSent 	4886
scalar Forest.networkOne[5].appl 	nbPacketsReceived 	0
statistic Forest.networkOne[5].appl 	latency
field count 0
field mean 0
field stddev -nan
field sum 0
field sqrsum 0
field min 0
field max 0
scalar Forest.networkOne[5].batteryStats 	nominal 	10800000
attr unit  mW-s
scalar Forest.networkOne[5].batteryStats 	total 	282524.6205499
attr unit  mW-s
scalar Forest.networkOne[5].batteryStats 	lifetime 	-1
attr unit  s
scalar Forest.networkOne[5].batteryStats 	"Mean power consumption" 	56.392066226129
attr unit  mW
scalar Forest.networkOne[5].batteryStats 	"num devices" 	1
scalar Forest.networkOne[5].batteryStats 	"physical layer" 	0
scalar Forest.networkOne[5].batteryStats 	"device total (mWs)" 	282524.62054643
scalar Forest.networkOne[5].batteryStats 	account 	0
scalar Forest.networkOne[5].batteryStats 	"energy (mWs)" 	0
scalar Forest.networkOne[5].batteryStats 	"time (s)" 	0
scalar Forest.networkOne[5].batteryStats 	"account 0" 	0
scalar Forest.networkOne[5].batteryStats 	account 	1
scalar Forest.networkOne[5].batteryStats 	"energy (mWs)" 	281847.59970803
scalar Forest.networkOne[5].batteryStats 	"time (s)" 	4997.2978671645
scalar Forest.networkOne[5].batteryStats 	"account 1" 	281847.59970803
scalar Forest.networkOne[5].batteryStats 	account 	2
scalar Forest.networkOne[5].batteryStats 	"energy (mWs)" 	494.01411840003
scalar Forest.networkOne[5].batteryStats 	"time (s)" 	9.463872
scalar Forest.networkOne[5].batteryStats 	"account 2" 	494.01411840003
scalar Forest.networkOne[5].batteryStats 	account 	3
scalar Forest.networkOne[5].batteryStats 	"energy (mWs)" 	183.00672000005
scalar Forest.networkOne[5].batteryStats 	"time (s)" 	3.2448
scalar Forest.networkOne[5].batteryStats 	"account 3" 	183.00672000005
scalar Forest.networkOne[5].batteryStats 	account 	4
scalar Forest.networkOne[5].batteryStats 	"energy (mWs)" 	0
scalar Forest.networkOne[5].batteryStats 	"time (s)" 	0
scalar Forest.networkOne[5].batteryStats 	"account 4" 	0
scalar Forest.networkOne[6].nic.mac 	nbTxFrames 	8581
scalar Forest.networkOne[6].nic.mac 	nbRxFrames 	33592
scalar Forest.networkOne[6].nic.mac 	nbDroppedFrames 	1350
scalar Forest.networkOne[6].nic.mac 	nbMissedAcks 	0
scalar Forest.networkOne[6].nic.mac 	nbRecvdAcks 	0
scalar Forest.networkOne[6].nic.mac 	nbTxAcks 	0
scalar Forest.networkOne[6].nic.mac 	nbDuplicates 	0
scalar Forest.networkOne[6].nic.mac 	meanBackoff 	0.002696379805719
scalar Forest.networkOne[6].nic.mac 	nbBackoffs 	21927
scalar Forest.networkOne[6].nic.mac 	backoffDurations 	59.123520000001
scalar Forest.networkOne[6].nic.phy 	nbFramesWithInterference 	34633
scalar Forest.networkOne[6].nic.phy 	nbFramesWithoutInterference 	332677
scalar Forest.networkOne[6].nic.phy 	nbFramesWithInterferencePartial 	20730
scalar Forest.networkOne[6].nic.phy 	nbFramesWithoutInterferencePartial 	3035
scalar Forest.networkOne[6].nic.phy 	nbFramesWithInterferenceDropped 	11715
scalar Forest.networkOne[6].nic.phy 	nbFramesWithoutInterferenceDropped 	41214
scalar Forest.networkOne[6].netwl 	nbDataPacketsForwarded 	4975
scalar Forest.networkOne[6].netwl 	nbDataPacketsReceived 	0
scalar Forest.networkOne[6].netwl 	nbDataPacketsSent 	4956
scalar Forest.networkOne[6].netwl 	nbDuplicatedFloodsReceived 	50222
scalar Forest.networkOne[6].netwl 	nbFloodsSent 	0
scalar Forest.networkOne[6].netwl 	nbPureUnicastSent 	4956
scalar Forest.networkOne[6].netwl 	nbRouteFloodsSent 	0
scalar Forest.networkOne[6].netwl 	nbRouteFloodsReceived 	5
scalar Forest.networkOne[6].netwl 	nbUnicastFloodForwarded 	4970
scalar Forest.networkOne[6].netwl 	nbPureUnicastForwarded 	0
scalar Forest.networkOne[6].netwl 	nbGetRouteFailures 	0
scalar Forest.networkOne[6].netwl 	nbRoutesRecorded 	1
scalar Forest.networkOne[6].netwl 	meanNbHops 	-nan
scalar Forest.networkOne[6].tranl 	nbAggrPktReceived 	0
scalar Forest.networkOne[6].tranl 	"nbAggrPktSentDown " 	0
scalar Forest.networkOne[6].appl 	"activity duration" 	-1
attr unit  s
scalar Forest.networkOne[6].appl 	firstPacketGeneration 	-1
attr unit  s
scalar Forest.networkOne[6].appl 	lastPacketReception 	-2
attr unit  s
scalar Forest.networkOne[6].appl 	nbPacketsSent 	4956
scalar Forest.networkOne[6].appl 	nbPacketsReceived 	0
statistic Forest.networkOne[6].appl 	latency
field count 0
field mean 0
field stddev -nan
field sum 0
field sqrsum 0
field min 0
field max 0
scalar Forest.networkOne[6].batteryStats 	nominal 	10800000
attr unit  mW-s
scalar Forest.networkOne[6].batteryStats 	total 	282524.00513275
attr unit  mW-s
scalar Forest.networkOne[6].batteryStats 	lifetime 	-1
attr unit  s
scalar Forest.networkOne[6].batteryStats 	"Mean power consumption" 	56.391943388535
attr unit  mW
scalar Forest.networkOne[6].batteryStats 	"num devices" 	1
scalar Forest.networkOne[6].batteryStats 	"physical layer" 	0
scalar Forest.networkOne[6].batteryStats 	"device total (mWs)" 	282524.00512883
scalar Forest.networkOne[6].batteryStats 	account 	0
scalar Forest.networkOne[6].batteryStats 	"energy (mWs)" 	0
scalar Forest.networkOne[6].batteryStats 	"time (s)" 	0
scalar Forest.networkOne[6].batteryStats 	"account 0" 	0
scalar Forest.networkOne[6].batteryStats 	account 	1
scalar Forest.networkOne[6].batteryStats 	"energy (mWs)" 	281836.49838323
scalar Forest.networkOne[6].batteryStats 	"time (s)" 	4997.1010351645
scalar Forest.networkOne[6].batteryStats 	"account 1" 	281836.49838323
scalar Forest.networkOne[6].batteryStats 	account 	2
scalar Forest.networkOne[6].batteryStats 	"energy (mWs)" 	501.66288000003
scalar Forest.networkOne[6].batteryStats 	"time (s)" 	9.6104
scalar Forest.networkOne[6].batteryStats 	"account 2" 	501.66288000003
scalar Forest.networkOne[6].batteryStats 	account 	3
scalar Forest.networkOne[6].batteryStats 	"energy (mWs)" 	185.84386560006
scalar Forest.networkOne[6].batteryStats 	"time (s)" 	3.295104
scalar Forest.networkOne[6].batteryStats 	"account 3" 	185.84386560006
scalar Forest.networkOne[6].batteryStats 	account 	4
scalar Forest.networkOne[6].batteryStats 	"energy (mWs)" 	0
scalar Forest.networkOne[6].batteryStats 	"time (s)" 	0
scalar Forest.networkOne[6].batteryStats 	"account 4" 	0
scalar Forest.networkOne[7].nic.mac 	nbTxFrames 	8718
scalar Forest.networkOne[7].nic.mac 	nbRxFrames 	30874
scalar Forest.networkOne[7].nic.mac 	nbDroppedFrames 	1257
scalar Forest.networkOne[7].nic.mac 	nbMissedAcks 	0
scalar Forest.networkOne[7].nic.mac 	nbRecvdAcks 	0
scalar Forest.networkOne[7].nic.mac 	nbTxAcks 	0
scalar Forest.networkOne[7].nic.mac 	nbDuplicates 	0
scalar Forest.networkOne[7].nic.mac 	meanBackoff 	0.0027013861927547
scalar Forest.networkOne[7].nic.mac 	nbBackoffs 	21945
scalar Forest.networkOne[7].nic.mac 	backoffDurations 	59.281920000001
scalar Forest.networkOne[7].nic.phy 	nbFramesWithInterference 	32163
scalar Forest.networkOne[7].nic.phy 	nbFramesWithoutInterference 	300350
scalar Forest.networkOne[7].nic.phy 	nbFramesWithInterferencePartial 	19085
scalar Forest.networkOne[7].nic.phy 	nbFramesWithoutInterferencePartial 	3205
scalar Forest.networkOne[7].nic.phy 	nbFramesWithInterferenceDropped 	11668
scalar Forest.networkOne[7].nic.phy 	nbFramesWithoutInterferenceDropped 	42971
scalar Forest.networkOne[7].netwl 	nbDataPacketsForwarded 	4975
scalar Forest.networkOne[7].netwl 	nbDataPacketsReceived 	0
scalar Forest.networkOne[7].netwl 	nbDataPacketsSent 	5000
scalar Forest.networkOne[7].netwl 	nbDuplicatedFloodsReceived 	46871
scalar Forest.networkOne[7].netwl 	nbFloodsSent 	0
scalar Forest.networkOne[7].netwl 	nbPureUnicastSent 	5000
scalar Forest.networkOne[7].netwl 	nbRouteFloodsSent 	0
scalar Forest.networkOne[7].netwl 	nbRouteFloodsReceived 	5
scalar Forest.networkOne[7].netwl 	nbUnicastFloodForwarded 	4970
scalar Forest.networkOne[7].netwl 	nbPureUnicastForwarded 	0
scalar Forest.networkOne[7].netwl 	nbGetRouteFailures 	0
scalar Forest.networkOne[7].netwl 	nbRoutesRecorded 	1
scalar Forest.networkOne[7].netwl 	meanNbHops 	-nan
scalar Forest.networkOne[7].tranl 	nbAggrPktReceived 	0
scalar Forest.networkOne[7].tranl 	"nbAggrPktSentDown " 	0
scalar Forest.networkOne[7].appl 	"activity duration" 	-1
attr unit  s
scalar Forest.networkOne[7].appl 	firstPacketGeneration 	-1
attr unit  s
scalar Forest.networkOne[7].appl 	lastPacketReception 	-2
attr unit  s
scalar Forest.networkOne[7].appl 	nbPacketsSent 	5000
scalar Forest.networkOne[7].appl 	nbPacketsReceived 	0
statistic Forest.networkOne[7].appl 	latency
field count 0
field mean 0
field stddev -nan
field sum 0
field sqrsum 0
field min 0
field max 0
scalar Forest.networkOne[7].batteryStats 	nominal 	10800000
attr unit  mW-s
scalar Forest.networkOne[7].batteryStats 	total 	282523.36041587
attr unit  mW-s
scalar Forest.networkOne[7].batteryStats 	lifetime 	-1
attr unit  s
scalar Forest.networkOne[7].batteryStats 	"Mean power consumption" 	56.391814702699
attr unit  mW
scalar Forest.networkOne[7].batteryStats 	"num devices" 	1
scalar Forest.networkOne[7].batteryStats 	"physical layer" 	0
scalar Forest.networkOne[7].batteryStats 	"device total (mWs)" 	282523.36041203
scalar Forest.networkOne[7].batteryStats 	account 	0
scalar Forest.networkOne[7].batteryStats 	"energy (mWs)" 	0
scalar Forest.networkOne[7].batteryStats 	"time (s)" 	0
scalar Forest.networkOne[7].batteryStats 	"account 0" 	0
scalar Forest.networkOne[7].batteryStats 	account 	1
scalar Forest.networkOne[7].batteryStats 	"energy (mWs)" 	281824.87366643
scalar Forest.networkOne[7].batteryStats 	"time (s)" 	4996.8949231645
scalar Forest.networkOne[7].batteryStats 	"account 1" 	281824.87366643
scalar Forest.networkOne[7].batteryStats 	account 	2
scalar Forest.networkOne[7].batteryStats 	"energy (mWs)" 	509.67578880004
scalar Forest.networkOne[7].batteryStats 	"time (s)" 	9.763904
scalar Forest.networkOne[7].batteryStats 	"account 2" 	509.67578880004
scalar Forest.networkOne[7].batteryStats 	account 	3
scalar Forest.networkOne[7].batteryStats 	"energy (mWs)" 	188.81095680006
scalar Forest.networkOne[7].batteryStats 	"time (s)" 	3.347712
scalar Forest.networkOne[7].batteryStats 	"account 3" 	188.81095680006
scalar Forest.networkOne[7].batteryStats 	account 	4
scalar Forest.networkOne[7].batteryStats 	"energy (mWs)" 	0
scalar Forest.networkOne[7].batteryStats 	"time (s)" 	0
scalar Forest.networkOne[7].batteryStats 	"account 4" 	0
scalar Forest.networkOne[8].nic.mac 	nbTxFrames 	8704
scalar Forest.networkOne[8].nic.mac 	nbRxFrames 	28040
scalar Forest.networkOne[8].nic.mac 	nbDroppedFrames 	1271
scalar Forest.networkOne[8].nic.mac 	nbMissedAcks 	0
scalar Forest.networkOne[8].nic.mac 	nbRecvdAcks 	0
scalar Forest.networkOne[8].nic.mac 	nbTxAcks 	0
scalar Forest.networkOne[8].nic.mac 	nbDuplicates 	0
scalar Forest.networkOne[8].nic.mac 	meanBackoff 	0.0026912375005656
scalar Forest.networkOne[8].nic.mac 	nbBackoffs 	22101
scalar Forest.networkOne[8].nic.mac 	backoffDurations 	59.479040000001
scalar Forest.networkOne[8].nic.phy 	nbFramesWithInterference 	29518
scalar Forest.networkOne[8].nic.phy 	nbFramesWithoutInterference 	258249
scalar Forest.networkOne[8].nic.phy 	nbFramesWithInterferencePartial 	16297
scalar Forest.networkOne[8].nic.phy 	nbFramesWithoutInterferencePartial 	3381
scalar Forest.networkOne[8].nic.phy 	nbFramesWithInterferenceDropped 	11867
scalar Forest.networkOne[8].nic.phy 	nbFramesWithoutInterferenceDropped 	44626
scalar Forest.networkOne[8].netwl 	nbDataPacketsForwarded 	4975
scalar Forest.networkOne[8].netwl 	nbDataPacketsReceived 	0
scalar Forest.networkOne[8].netwl 	nbDataPacketsSent 	5000
scalar Forest.networkOne[8].netwl 	nbDuplicatedFloodsReceived 	42940
scalar Forest.networkOne[8].netwl 	nbFloodsSent 	0
scalar Forest.networkOne[8].netwl 	nbPureUnicastSent 	5000
scalar Forest.networkOne[8].netwl 	nbRouteFloodsSent 	0
scalar Forest.networkOne[8].netwl 	nbRouteFloodsReceived 	5
scalar Forest.networkOne[8].netwl 	nbUnicastFloodForwarded 	4970
scalar Forest.networkOne[8].netwl 	nbPureUnicastForwarded 	0
scalar Forest.networkOne[8].netwl 	nbGetRouteFailures 	0
scalar Forest.networkOne[8].netwl 	nbRoutesRecorded 	1
scalar Forest.networkOne[8].netwl 	meanNbHops 	-nan
scalar Forest.networkOne[8].tranl 	nbAggrPktReceived 	0
scalar Forest.networkOne[8].tranl 	"nbAggrPktSentDown " 	0
scalar Forest.networkOne[8].appl 	"activity duration" 	-1
attr unit  s
scalar Forest.networkOne[8].appl 	firstPacketGeneration 	-1
attr unit  s
scalar Forest.networkOne[8].appl 	lastPacketReception 	-2
attr unit  s
scalar Forest.networkOne[8].appl 	nbPacketsSent 	5000
scalar Forest.networkOne[8].appl 	nbPacketsReceived 	0
statistic Forest.networkOne[8].appl 	latency
field count 0
field mean 0
field stddev -nan
field sum 0
field sqrsum 0
field min 0
field max 0
scalar Forest.networkOne[8].batteryStats 	nominal 	10800000
attr unit  mW-s
scalar Forest.networkOne[8].batteryStats 	total 	282523.42600304
attr unit  mW-s
scalar Forest.networkOne[8].batteryStats 	lifetime 	-1
attr unit  s
scalar Forest.networkOne[8].batteryStats 	"Mean power consumption" 	56.391827793933
attr unit  mW
scalar Forest.networkOne[8].batteryStats 	"num devices" 	1
scalar Forest.networkOne[8].batteryStats 	"physical layer" 	0
scalar Forest.networkOne[8].batteryStats 	"device total (mWs)" 	282523.42599923
scalar Forest.networkOne[8].batteryStats 	account 	0
scalar Forest.networkOne[8].batteryStats 	"energy (mWs)" 	0
scalar Forest.networkOne[8].batteryStats 	"time (s)" 	0
scalar Forest.networkOne[8].batteryStats 	"account 0" 	0
scalar Forest.networkOne[8].batteryStats 	account 	1
scalar Forest.networkOne[8].batteryStats 	"energy (mWs)" 	281826.05761523
scalar Forest.networkOne[8].batteryStats 	"time (s)" 	4996.9159151645
scalar Forest.networkOne[8].batteryStats 	"account 1" 	281826.05761523
scalar Forest.networkOne[8].batteryStats 	account 	2
scalar Forest.networkOne[8].batteryStats 	"energy (mWs)" 	508.86063360004
scalar Forest.networkOne[8].batteryStats 	"time (s)" 	9.748288
scalar Forest.networkOne[8].batteryStats 	"account 2" 	508.86063360004
scalar Forest.networkOne[8].batteryStats 	account 	3
scalar Forest.networkOne[8].batteryStats 	"energy (mWs)" 	188.50775040006
scalar Forest.networkOne[8].batteryStats 	"time (s)" 	3.342336
scalar Forest.networkOne[8].batteryStats 	"account 3" 	188.50775040006
scalar Forest.networkOne[8].batteryStats 	account 	4
scalar Forest.networkOne[8].batteryStats 	"energy (mWs)" 	0
scalar Forest.networkOne[8].batteryStats 	"time (s)" 	0
scalar Forest.networkOne[8].batteryStats 	"account 4" 	0
scalar Forest.networkOne[9].nic.mac 	nbTxFrames 	8492
scalar Forest.networkOne[9].nic.mac 	nbRxFrames 	34238
scalar Forest.networkOne[9].nic.mac 	nbDroppedFrames 	1483
scalar Forest.networkOne[9].nic.mac 	nbMissedAcks 	0
scalar Forest.networkOne[9].nic.mac 	nbRecvdAcks 	0
scalar Forest.networkOne[9].nic.mac 	nbTxAcks 	0
scalar Forest.networkOne[9].nic.mac 	nbDuplicates 	0
scalar Forest.networkOne[9].nic.mac 	meanBackoff 	0.0027344458460984
scalar Forest.networkOne[9].nic.mac 	nbBackoffs 	22196
scalar Forest.networkOne[9].nic.mac 	backoffDurations 	60.693760000001
scalar Forest.networkOne[9].nic.phy 	nbFramesWithInterference 	36113
scalar Forest.networkOne[9].nic.phy 	nbFramesWithoutInterference 	271799
scalar Forest.networkOne[9].nic.phy 	nbFramesWithInterferencePartial 	14301
scalar Forest.networkOne[9].nic.phy 	nbFramesWithoutInterferencePartial 	3428
scalar Forest.networkOne[9].nic.phy 	nbFramesWithInterferenceDropped 	12262
scalar Forest.networkOne[9].nic.phy 	nbFramesWithoutInterferenceDropped 	46645
scalar Forest.networkOne[9].netwl 	nbDataPacketsForwarded 	4975
scalar Forest.networkOne[9].netwl 	nbDataPacketsReceived 	0
scalar Forest.networkOne[9].netwl 	nbDataPacketsSent 	5000
scalar Forest.networkOne[9].netwl 	nbDuplicatedFloodsReceived 	50183
scalar Forest.networkOne[9].netwl 	nbFloodsSent 	0
scalar Forest.networkOne[9].netwl 	nbPureUnicastSent 	5000
scalar Forest.networkOne[9].netwl 	nbRouteFloodsSent 	0
scalar Forest.networkOne[9].netwl 	nbRouteFloodsReceived 	5
scalar Forest.networkOne[9].netwl 	nbUnicastFloodForwarded 	4970
scalar Forest.networkOne[9].netwl 	nbPureUnicastForwarded 	0
scalar Forest.networkOne[9].netwl 	nbGetRouteFailures 	0
scalar Forest.networkOne[9].netwl 	nbRoutesRecorded 	1
scalar Forest.networkOne[9].netwl 	meanNbHops 	-nan
scalar Forest.networkOne[9].tranl 	nbAggrPktReceived 	0
scalar Forest.networkOne[9].tranl 	"nbAggrPktSentDown " 	0
scalar Forest.networkOne[9].appl 	"activity duration" 	-1
attr unit  s
scalar Forest.networkOne[9].appl 	firstPacketGeneration 	-1
attr unit  s
scalar Forest.networkOne[9].appl 	lastPacketReception 	-2
attr unit  s
scalar Forest.networkOne[9].appl 	nbPacketsSent 	5000
scalar Forest.networkOne[9].appl 	nbPacketsReceived 	0
statistic Forest.networkOne[9].appl 	latency
field count 0
field mean 0
field stddev -nan
field sum 0
field sqrsum 0
field min 0
field max 0
scalar Forest.networkOne[9].batteryStats 	nominal 	10800000
attr unit  mW-s
scalar Forest.networkOne[9].batteryStats 	total 	282524.42378851
attr unit  mW-s
scalar Forest.networkOne[9].batteryStats 	lifetime 	-1
attr unit  s
scalar Forest.networkOne[9].batteryStats 	"Mean power consumption" 	56.39202695245
attr unit  mW
scalar Forest.networkOne[9].batteryStats 	"num devices" 	1
scalar Forest.networkOne[9].batteryStats 	"physical layer" 	0
scalar Forest.networkOne[9].batteryStats 	"device total (mWs)" 	282524.42378483
scalar Forest.networkOne[9].batteryStats 	account 	0
scalar Forest.networkOne[9].batteryStats 	"energy (mWs)" 	0
scalar Forest.networkOne[9].batteryStats 	"time (s)" 	0
scalar Forest.networkOne[9].batteryStats 	"account 0" 	0
scalar Forest.networkOne[9].batteryStats 	account 	1
scalar Forest.networkOne[9].batteryStats 	"energy (mWs)" 	281844.04786163
scalar Forest.networkOne[9].batteryStats 	"time (s)" 	4997.2348911645
scalar Forest.networkOne[9].batteryStats 	"account 1" 	281844.04786163
scalar Forest.networkOne[9].batteryStats 	account 	2
scalar Forest.networkOne[9].batteryStats 	"energy (mWs)" 	496.45958400003
scalar Forest.networkOne[9].batteryStats 	"time (s)" 	9.51072
scalar Forest.networkOne[9].batteryStats 	"account 2" 	496.45958400003
scalar Forest.networkOne[9].batteryStats 	account 	3
scalar Forest.networkOne[9].batteryStats 	"energy (mWs)" 	183.91633920005
scalar Forest.networkOne[9].batteryStats 	"time (s)" 	3.260928
scalar Forest.networkOne[9].batteryStats 	"account 3" 	183.91633920005
scalar Forest.networkOne[9].batteryStats 	account 	4
scalar Forest.networkOne[9].batteryStats 	"energy (mWs)" 	0
scalar Forest.networkOne[9].batteryStats 	"time (s)" 	0
scalar Forest.networkOne[9].batteryStats 	"account 4" 	0
scalar Forest.networkOne[10].nic.mac 	nbTxFrames 	8403
scalar Forest.networkOne[10].nic.mac 	nbRxFrames 	37341
scalar Forest.networkOne[10].nic.mac 	nbDroppedFrames 	1563
scalar Forest.networkOne[10].nic.mac 	nbMissedAcks 	0
scalar Forest.networkOne[10].nic.mac 	nbRecvdAcks 	0
scalar Forest.networkOne[10].nic.mac 	nbTxAcks 	0
scalar Forest.networkOne[10].nic.mac 	nbDuplicates 	0
scalar Forest.networkOne[10].nic.mac 	meanBackoff 	0.0027192494303713
scalar Forest.networkOne[10].nic.mac 	nbBackoffs 	22383
scalar Forest.networkOne[10].nic.mac 	backoffDurations 	60.864960000001
scalar Forest.networkOne[10].nic.phy 	nbFramesWithInterference 	39715
scalar Forest.networkOne[10].nic.phy 	nbFramesWithoutInterference 	322491
scalar Forest.networkOne[10].nic.phy 	nbFramesWithInterferencePartial 	16554
scalar Forest.networkOne[10].nic.phy 	nbFramesWithoutInterferencePartial 	3371
scalar Forest.networkOne[10].nic.phy 	nbFramesWithInterferenceDropped 	11816
scalar Forest.networkOne[10].nic.phy 	nbFramesWithoutInterferenceDropped 	45446
scalar Forest.networkOne[10].netwl 	nbDataPacketsForwarded 	4975
scalar Forest.networkOne[10].netwl 	nbDataPacketsReceived 	0
scalar Forest.networkOne[10].netwl 	nbDataPacketsSent 	4991
scalar Forest.networkOne[10].netwl 	nbDuplicatedFloodsReceived 	55573
scalar Forest.networkOne[10].netwl 	nbFloodsSent 	0
scalar Forest.networkOne[10].netwl 	nbPureUnicastSent 	4991
scalar Forest.networkOne[10].netwl 	nbRouteFloodsSent 	0
scalar Forest.networkOne[10].netwl 	nbRouteFloodsReceived 	5
scalar Forest.networkOne[10].netwl 	nbUnicastFloodForwarded 	4970
scalar Forest.networkOne[10].netwl 	nbPureUnicastForwarded 	0
scalar Forest.networkOne[10].netwl 	nbGetRouteFailures 	0
scalar Forest.networkOne[10].netwl 	nbRoutesRecorded 	1
scalar Forest.networkOne[10].netwl 	meanNbHops 	-nan
scalar Forest.networkOne[10].tranl 	nbAggrPktReceived 	0
scalar Forest.networkOne[10].tranl 	"nbAggrPktSentDown " 	0
scalar Forest.networkOne[10].appl 	"activity duration" 	-1
attr unit  s
scalar Forest.networkOne[10].appl 	firstPacketGeneration 	-1
attr unit  s
scalar Forest.networkOne[10].appl 	lastPacketReception 	-2
attr unit  s
scalar Forest.networkOne[10].appl 	nbPacketsSent 	4991
scalar Forest.networkOne[10].appl 	nbPacketsReceived 	0
statistic Forest.networkOne[10].appl 	latency
field count 0
field mean 0
field stddev -nan
field sum 0
field sqrsum 0
field min 0
field max 0
scalar Forest.networkOne[10].batteryStats 	nominal 	10800000
attr unit  mW-s
scalar Forest.networkOne[10].batteryStats 	total 	282524.84163818
attr unit  mW-s
scalar Forest.networkOne[10].batteryStats 	lifetime 	-1
attr unit  s
scalar Forest.networkOne[10].batteryStats 	"Mean power consumption" 	56.392110355468
attr unit  mW
scalar Forest.networkOne[10].batteryStats 	"num devices" 	1
scalar Forest.networkOne[10].batteryStats 	"physical layer" 	0
scalar Forest.networkOne[10].batteryStats 	"device total (mWs)" 	282524.84163443
scalar Forest.networkOne[10].batteryStats 	account 	0
scalar Forest.networkOne[10].batteryStats 	"energy (mWs)" 	0
scalar Forest.networkOne[10].batteryStats 	"time (s)" 	0
scalar Forest.networkOne[10].batteryStats 	"account 0" 	0
scalar Forest.networkOne[10].batteryStats 	account 	1
scalar Forest.networkOne[10].batteryStats 	"energy (mWs)" 	281851.58651123
scalar Forest.networkOne[10].batteryStats 	"time (s)" 	4997.3685551645
scalar Forest.networkOne[10].batteryStats 	"account 1" 	281851.58651123
scalar Forest.networkOne[10].batteryStats 	account 	2
scalar Forest.networkOne[10].batteryStats 	"energy (mWs)" 	491.26631040003
scalar Forest.networkOne[10].batteryStats 	"time (s)" 	9.411232
scalar Forest.networkOne[10].batteryStats 	"account 2" 	491.26631040003
scalar Forest.networkOne[10].batteryStats 	account 	3
scalar Forest.networkOne[10].batteryStats 	"energy (mWs)" 	181.98881280005
scalar Forest.networkOne[10].batteryStats 	"time (s)" 	3.226752
scalar Forest.networkOne[10].batteryStats 	"account 3" 	181.98881280005
scalar Forest.networkOne[10].batteryStats 	account 	4
scalar Forest.networkOne[10].batteryStats 	"energy (mWs)" 	0
scalar Forest.networkOne[10].batteryStats 	"time (s)" 	0
scalar Forest.networkOne[10].batteryStats 	"account 4" 	0
scalar Forest.networkOne[11].nic.mac 	nbTxFrames 	13180
scalar Forest.networkOne[11].nic.mac 	nbRxFrames 	44743
scalar Forest.networkOne[11].nic.mac 	nbDroppedFrames 	1535
scalar Forest.networkOne[11].nic.mac 	nbMissedAcks 	0
scalar Forest.networkOne[11].nic.mac 	nbRecvdAcks 	0
scalar Forest.networkOne[11].nic.mac 	nbTxAcks 	0
scalar Forest.networkOne[11].nic.mac 	nbDuplicates 	0
scalar Forest.networkOne[11].nic.mac 	meanBackoff 	0.0024623432003128
scalar Forest.networkOne[11].nic.mac 	nbBackoffs 	28141
scalar Forest.networkOne[11].nic.mac 	backoffDurations 	69.292800000002
scalar Forest.networkOne[11].nic.phy 	nbFramesWithInterference 	41009
scalar Forest.networkOne[11].nic.phy 	nbFramesWithoutInterference 	363016
scalar Forest.networkOne[11].nic.phy 	nbFramesWithInterferencePartial 	18800
scalar Forest.networkOne[11].nic.phy 	nbFramesWithoutInterferencePartial 	3117
scalar Forest.networkOne[11].nic.phy 	nbFramesWithInterferenceDropped 	12012
scalar Forest.networkOne[11].nic.phy 	nbFramesWithoutInterferenceDropped 	42543
scalar Forest.networkOne[11].netwl 	nbDataPacketsForwarded 	9717
scalar Forest.networkOne[11].netwl 	nbDataPacketsReceived 	0
scalar Forest.networkOne[11].netwl 	nbDataPacketsSent 	4998
scalar Forest.networkOne[11].netwl 	nbDuplicatedFloodsReceived 	59051
scalar Forest.networkOne[11].netwl 	nbFloodsSent 	0
scalar Forest.networkOne[11].netwl 	nbPureUnicastSent 	4998
scalar Forest.networkOne[11].netwl 	nbRouteFloodsSent 	0
scalar Forest.networkOne[11].netwl 	nbRouteFloodsReceived 	5
scalar Forest.networkOne[11].netwl 	nbUnicastFloodForwarded 	4971
scalar Forest.networkOne[11].netwl 	nbPureUnicastForwarded 	4741
scalar Forest.networkOne[11].netwl 	nbGetRouteFailures 	0
scalar Forest.networkOne[11].netwl 	nbRoutesRecorded 	1
scalar Forest.networkOne[11].netwl 	meanNbHops 	-nan
scalar Forest.networkOne[11].tranl 	nbAggrPktReceived 	0
scalar Forest.networkOne[11].tranl 	"nbAggrPktSentDown " 	0
scalar Forest.networkOne[11].appl 	"activity duration" 	-1
attr unit  s
scalar Forest.networkOne[11].appl 	firstPacketGeneration 	-1
attr unit  s
scalar Forest.networkOne[11].appl 	lastPacketReception 	-2
attr unit  s
scalar Forest.networkOne[11].appl 	nbPacketsSent 	4998
scalar Forest.networkOne[11].appl 	nbPacketsReceived 	0
statistic Forest.networkOne[11].appl 	latency
field count 0
field mean 0
field stddev -nan
field sum 0
field sqrsum 0
field min 0
field max 0
scalar Forest.networkOne[11].batteryStats 	nominal 	10800000
attr unit  mW-s
scalar Forest.networkOne[11].batteryStats 	total 	282502.37116975
attr unit  mW-s
scalar Forest.networkOne[11].batteryStats 	lifetime 	-1
attr unit  s
scalar Forest.networkOne[11].batteryStats 	"Mean power consumption" 	56.387625237883
attr unit  mW
scalar Forest.networkOne[11].batteryStats 	"num devices" 	1
scalar Forest.networkOne[11].batteryStats 	"physical layer" 	0
scalar Forest.networkOne[11].batteryStats 	"device total (mWs)" 	282502.37116401
scalar Forest.networkOne[11].batteryStats 	account 	0
scalar Forest.networkOne[11].batteryStats 	"energy (mWs)" 	0
scalar Forest.networkOne[11].batteryStats 	"time (s)" 	0
scalar Forest.networkOne[11].batteryStats 	"account 0" 	0
scalar Forest.networkOne[11].batteryStats 	account 	1
scalar Forest.networkOne[11].batteryStats 	"energy (mWs)" 	281446.38183921
scalar Forest.networkOne[11].batteryStats 	"time (s)" 	4990.1840751645
scalar Forest.networkOne[11].batteryStats 	"account 1" 	281446.38183921
scalar Forest.networkOne[11].batteryStats 	account 	2
scalar Forest.networkOne[11].batteryStats 	"energy (mWs)" 	770.54215679985
scalar Forest.networkOne[11].batteryStats 	"time (s)" 	14.761344
scalar Forest.networkOne[11].batteryStats 	"account 2" 	770.54215679985
scalar Forest.networkOne[11].batteryStats 	account 	3
scalar Forest.networkOne[11].batteryStats 	"energy (mWs)" 	285.44716800018
scalar Forest.networkOne[11].batteryStats 	"time (s)" 	5.06112
scalar Forest.networkOne[11].batteryStats 	"account 3" 	285.44716800018
scalar Forest.networkOne[11].batteryStats 	account 	4
scalar Forest.networkOne[11].batteryStats 	"energy (mWs)" 	0
scalar Forest.networkOne[11].batteryStats 	"time (s)" 	0
scalar Forest.networkOne[11].batteryStats 	"account 4" 	0
scalar Forest.networkOne[12].nic.mac 	nbTxFrames 	8495
scalar Forest.networkOne[12].nic.mac 	nbRxFrames 	40934
scalar Forest.networkOne[12].nic.mac 	nbDroppedFrames 	1480
scalar Forest.networkOne[12].nic.mac 	nbMissedAcks 	0
scalar Forest.networkOne[12].nic.mac 	nbRecvdAcks 	0
scalar Forest.networkOne[12].nic.mac 	nbTxAcks 	0
scalar Forest.networkOne[12].nic.mac 	nbDuplicates 	0
scalar Forest.networkOne[12].nic.mac 	meanBackoff 	0.002729979359239
scalar Forest.networkOne[12].nic.mac 	nbBackoffs 	22286
scalar Forest.networkOne[12].nic.mac 	backoffDurations 	60.840320000001
scalar Forest.networkOne[12].nic.phy 	nbFramesWithInterference 	40913
scalar Forest.networkOne[12].nic.phy 	nbFramesWithoutInterference 	399116
scalar Forest.networkOne[12].nic.phy 	nbFramesWithInterferencePartial 	21387
scalar Forest.networkOne[12].nic.phy 	nbFramesWithoutInterferencePartial 	2808
scalar Forest.networkOne[12].nic.phy 	nbFramesWithInterferenceDropped 	12174
scalar Forest.networkOne[12].nic.phy 	nbFramesWithoutInterferenceDropped 	38809
scalar Forest.networkOne[12].netwl 	nbDataPacketsForwarded 	4975
scalar Forest.networkOne[12].netwl 	nbDataPacketsReceived 	0
scalar Forest.networkOne[12].netwl 	nbDataPacketsSent 	5000
scalar Forest.networkOne[12].netwl 	nbDuplicatedFloodsReceived 	59766
scalar Forest.networkOne[12].netwl 	nbFloodsSent 	0
scalar Forest.networkOne[12].netwl 	nbPureUnicastSent 	5000
scalar Forest.networkOne[12].netwl 	nbRouteFloodsSent 	0
scalar Forest.networkOne[12].netwl 	nbRouteFloodsReceived 	5
scalar Forest.networkOne[12].netwl 	nbUnicastFloodForwarded 	4970
scalar Forest.networkOne[12].netwl 	nbPureUnicastForwarded 	0
scalar Forest.networkOne[12].netwl 	nbGetRouteFailures 	0
scalar Forest.networkOne[12].netwl 	nbRoutesRecorded 	1
scalar Forest.networkOne[12].netwl 	meanNbHops 	-nan
scalar Forest.networkOne[12].tranl 	nbAggrPktReceived 	0
scalar Forest.networkOne[12].tranl 	"nbAggrPktSentDown " 	0
scalar Forest.networkOne[12].appl 	"activity duration" 	-1
attr unit  s
scalar Forest.networkOne[12].appl 	firstPacketGeneration 	-1
attr unit  s
scalar Forest.networkOne[12].appl 	lastPacketReception 	-2
attr unit  s
scalar Forest.networkOne[12].appl 	nbPacketsSent 	5000
scalar Forest.networkOne[12].appl 	nbPacketsReceived 	0
statistic Forest.networkOne[12].appl 	latency
field count 0
field mean 0
field stddev -nan
field sum 0
field sqrsum 0
field min 0
field max 0
scalar Forest.networkOne[12].batteryStats 	nominal 	10800000
attr unit  mW-s
scalar Forest.networkOne[12].batteryStats 	total 	282524.40913907
attr unit  mW-s
scalar Forest.networkOne[12].batteryStats 	lifetime 	-1
attr unit  s
scalar Forest.networkOne[12].batteryStats 	"Mean power consumption" 	56.392024028414
attr unit  mW
scalar Forest.networkOne[12].batteryStats 	"num devices" 	1
scalar Forest.networkOne[12].batteryStats 	"physical layer" 	0
scalar Forest.networkOne[12].batteryStats 	"device total (mWs)" 	282524.40913523
scalar Forest.networkOne[12].batteryStats 	account 	0
scalar Forest.networkOne[12].batteryStats 	"energy (mWs)" 	0
scalar Forest.networkOne[12].batteryStats 	"time (s)" 	0
scalar Forest.networkOne[12].batteryStats 	"account 0" 	0
scalar Forest.networkOne[12].batteryStats 	account 	1
scalar Forest.networkOne[12].batteryStats 	"energy (mWs)" 	281843.78616563
scalar Forest.networkOne[12].batteryStats 	"time (s)" 	4997.2302511645
scalar Forest.networkOne[12].batteryStats 	"account 1" 	281843.78616563
scalar Forest.networkOne[12].batteryStats 	account 	2
scalar Forest.networkOne[12].batteryStats 	"energy (mWs)" 	496.64165760003
scalar Forest.networkOne[12].batteryStats 	"time (s)" 	9.514208
scalar Forest.networkOne[12].batteryStats 	"account 2" 	496.64165760003
scalar Forest.networkOne[12].batteryStats 	account 	3
scalar Forest.networkOne[12].batteryStats 	"energy (mWs)" 	183.98131200005
scalar Forest.networkOne[12].batteryStats 	"time (s)" 	3.26208
scalar Forest.networkOne[12].batteryStats 	"account 3" 	183.98131200005
scalar Forest.networkOne[12].batteryStats 	account 	4
scalar Forest.networkOne[12].batteryStats 	"energy (mWs)" 	0
scalar Forest.networkOne[12].batteryStats 	"time (s)" 	0
scalar Forest.networkOne[12].batteryStats 	"account 4" 	0
scalar Forest.networkOne[13].nic.mac 	nbTxFrames 	8505
scalar Forest.networkOne[13].nic.mac 	nbRxFrames 	40043
scalar Forest.networkOne[13].nic.mac 	nbDroppedFrames 	1470
scalar Forest.networkOne[13].nic.mac 	nbMissedAcks 	0
scalar Forest.networkOne[13].nic.mac 	nbRecvdAcks 	0
scalar Forest.networkOne[13].nic.mac 	nbTxAcks 	0
scalar Forest.networkOne[13].nic.mac 	nbDuplicates 	0
scalar Forest.networkOne[13].nic.mac 	meanBackoff 	0.0027154298013542
scalar Forest.networkOne[13].nic.mac 	nbBackoffs 	22301
scalar Forest.networkOne[13].nic.mac 	backoffDurations 	60.556800000001
scalar Forest.networkOne[13].nic.phy 	nbFramesWithInterference 	39472
scalar Forest.networkOne[13].nic.phy 	nbFramesWithoutInterference 	412199
scalar Forest.networkOne[13].nic.phy 	nbFramesWithInterferencePartial 	24218
scalar Forest.networkOne[13].nic.phy 	nbFramesWithoutInterferencePartial 	2563
scalar Forest.networkOne[13].nic.phy 	nbFramesWithInterferenceDropped 	11878
scalar Forest.networkOne[13].nic.phy 	nbFramesWithoutInterferenceDropped 	36577
scalar Forest.networkOne[13].netwl 	nbDataPacketsForwarded 	4975
scalar Forest.networkOne[13].netwl 	nbDataPacketsReceived 	0
scalar Forest.networkOne[13].netwl 	nbDataPacketsSent 	5000
scalar Forest.networkOne[13].netwl 	nbDuplicatedFloodsReceived 	58643
scalar Forest.networkOne[13].netwl 	nbFloodsSent 	0
[...]
scalar Forest.networkOne[76].netwl 	nbDataPacketsForwarded 	5441
scalar Forest.networkOne[76].netwl 	nbDataPacketsReceived 	0
scalar Forest.networkOne[76].netwl 	nbDataPacketsSent 	4971
scalar Forest.networkOne[76].netwl 	nbDuplicatedFloodsReceived 	50939
scalar Forest.networkOne[76].netwl 	nbFloodsSent 	0
scalar Forest.networkOne[76].netwl 	nbPureUnicastSent 	4971
scalar Forest.networkOne[76].netwl 	nbRouteFloodsSent 	0
scalar Forest.networkOne[76].netwl 	nbRouteFloodsReceived 	5
scalar Forest.networkOne[76].netwl 	nbUnicastFloodForwarded 	4970
scalar Forest.networkOne[76].netwl 	nbPureUnicastForwarded 	466
scalar Forest.networkOne[76].netwl 	nbGetRouteFailures 	0
scalar Forest.networkOne[76].netwl 	nbRoutesRecorded 	1
scalar Forest.networkOne[76].netwl 	meanNbHops 	-nan
scalar Forest.networkOne[76].tranl 	nbAggrPktReceived 	0
scalar Forest.networkOne[76].tranl 	"nbAggrPktSentDown " 	0
scalar Forest.networkOne[76].appl 	"activity duration" 	-1
attr unit  s
scalar Forest.networkOne[76].appl 	firstPacketGeneration 	-1
attr unit  s
scalar Forest.networkOne[76].appl 	lastPacketReception 	-2
attr unit  s
scalar Forest.networkOne[76].appl 	nbPacketsSent 	4971
scalar Forest.networkOne[76].appl 	nbPacketsReceived 	0
statistic Forest.networkOne[76].appl 	latency
field count 0
field mean 0
field stddev -nan
field sum 0
field sqrsum 0
field min 0
field max 0
scalar Forest.networkOne[76].batteryStats 	nominal 	10800000
attr unit  mW-s
scalar Forest.networkOne[76].batteryStats 	total 	282520.84821139
attr unit  mW-s
scalar Forest.networkOne[76].batteryStats 	lifetime 	-1
attr unit  s
scalar Forest.networkOne[76].batteryStats 	"Mean power consumption" 	56.391313265334
attr unit  mW
scalar Forest.networkOne[76].batteryStats 	"num devices" 	1
scalar Forest.networkOne[76].batteryStats 	"physical layer" 	0
scalar Forest.networkOne[76].batteryStats 	"device total (mWs)" 	282520.84820723
scalar Forest.networkOne[76].batteryStats 	account 	0
scalar Forest.networkOne[76].batteryStats 	"energy (mWs)" 	0
scalar Forest.networkOne[76].batteryStats 	"time (s)" 	0
scalar Forest.networkOne[76].batteryStats 	"account 0" 	0
scalar Forest.networkOne[76].batteryStats 	account 	1
scalar Forest.networkOne[76].batteryStats 	"energy (mWs)" 	281779.57318643
scalar Forest.networkOne[76].batteryStats 	"time (s)" 	4996.0917231645
scalar Forest.networkOne[76].batteryStats 	"account 1" 	281779.57318643
scalar Forest.networkOne[76].batteryStats 	account 	2
scalar Forest.networkOne[76].batteryStats 	"energy (mWs)" 	540.89890560002
scalar Forest.networkOne[76].batteryStats 	"time (s)" 	10.362048
scalar Forest.networkOne[76].batteryStats 	"account 2" 	540.89890560002
scalar Forest.networkOne[76].batteryStats 	account 	3
scalar Forest.networkOne[76].batteryStats 	"energy (mWs)" 	200.37611520007
scalar Forest.networkOne[76].batteryStats 	"time (s)" 	3.552768
scalar Forest.networkOne[76].batteryStats 	"account 3" 	200.37611520007
scalar Forest.networkOne[76].batteryStats 	account 	4
scalar Forest.networkOne[76].batteryStats 	"energy (mWs)" 	0
scalar Forest.networkOne[76].batteryStats 	"time (s)" 	0
scalar Forest.networkOne[76].batteryStats 	"account 4" 	0
scalar Forest.networkOne[77].nic.mac 	nbTxFrames 	8796
scalar Forest.networkOne[77].nic.mac 	nbRxFrames 	34266
scalar Forest.networkOne[77].nic.mac 	nbDroppedFrames 	1179
scalar Forest.networkOne[77].nic.mac 	nbMissedAcks 	0
scalar Forest.networkOne[77].nic.mac 	nbRecvdAcks 	0
scalar Forest.networkOne[77].nic.mac 	nbTxAcks 	0
scalar Forest.networkOne[77].nic.mac 	nbDuplicates 	0
scalar Forest.networkOne[77].nic.mac 	meanBackoff 	0.0026660711997804
scalar Forest.networkOne[77].nic.mac 	nbBackoffs 	21854
scalar Forest.networkOne[77].nic.mac 	backoffDurations 	58.264320000001
scalar Forest.networkOne[77].nic.phy 	nbFramesWithInterference 	26791
scalar Forest.networkOne[77].nic.phy 	nbFramesWithoutInterference 	364662
scalar Forest.networkOne[77].nic.phy 	nbFramesWithInterferencePartial 	27528
scalar Forest.networkOne[77].nic.phy 	nbFramesWithoutInterferencePartial 	3265
scalar Forest.networkOne[77].nic.phy 	nbFramesWithInterferenceDropped 	12227
scalar Forest.networkOne[77].nic.phy 	nbFramesWithoutInterferenceDropped 	45470
scalar Forest.networkOne[77].netwl 	nbDataPacketsForwarded 	4975
scalar Forest.networkOne[77].netwl 	nbDataPacketsReceived 	0
scalar Forest.networkOne[77].netwl 	nbDataPacketsSent 	5000
scalar Forest.networkOne[77].netwl 	nbDuplicatedFloodsReceived 	50584
scalar Forest.networkOne[77].netwl 	nbFloodsSent 	0
scalar Forest.networkOne[77].netwl 	nbPureUnicastSent 	5000
scalar Forest.networkOne[77].netwl 	nbRouteFloodsSent 	0
scalar Forest.networkOne[77].netwl 	nbRouteFloodsReceived 	5
scalar Forest.networkOne[77].netwl 	nbUnicastFloodForwarded 	4970
scalar Forest.networkOne[77].netwl 	nbPureUnicastForwarded 	0
scalar Forest.networkOne[77].netwl 	nbGetRouteFailures 	0
scalar Forest.networkOne[77].netwl 	nbRoutesRecorded 	1
scalar Forest.networkOne[77].netwl 	meanNbHops 	-nan
scalar Forest.networkOne[77].tranl 	nbAggrPktReceived 	0
scalar Forest.networkOne[77].tranl 	"nbAggrPktSentDown " 	0
scalar Forest.networkOne[77].appl 	"activity duration" 	-1
attr unit  s
scalar Forest.networkOne[77].appl 	firstPacketGeneration 	-1
attr unit  s
scalar Forest.networkOne[77].appl 	lastPacketReception 	-2
attr unit  s
scalar Forest.networkOne[77].appl 	nbPacketsSent 	5000
scalar Forest.networkOne[77].appl 	nbPacketsReceived 	0
statistic Forest.networkOne[77].appl 	latency
field count 0
field mean 0
field stddev -nan
field sum 0
field sqrsum 0
field min 0
field max 0
scalar Forest.networkOne[77].batteryStats 	nominal 	10800000
attr unit  mW-s
scalar Forest.networkOne[77].batteryStats 	total 	282522.99350389
attr unit  mW-s
scalar Forest.networkOne[77].batteryStats 	lifetime 	-1
attr unit  s
scalar Forest.networkOne[77].batteryStats 	"Mean power consumption" 	56.391741466871
attr unit  mW
scalar Forest.networkOne[77].batteryStats 	"num devices" 	1
scalar Forest.networkOne[77].batteryStats 	"physical layer" 	0
scalar Forest.networkOne[77].batteryStats 	"device total (mWs)" 	282522.99350003
scalar Forest.networkOne[77].batteryStats 	account 	0
scalar Forest.networkOne[77].batteryStats 	"energy (mWs)" 	0
scalar Forest.networkOne[77].batteryStats 	"time (s)" 	0
scalar Forest.networkOne[77].batteryStats 	"account 0" 	0
scalar Forest.networkOne[77].batteryStats 	account 	1
scalar Forest.networkOne[77].batteryStats 	"energy (mWs)" 	281818.25726963
scalar Forest.networkOne[77].batteryStats 	"time (s)" 	4996.7776111645
scalar Forest.networkOne[77].batteryStats 	"account 1" 	281818.25726963
scalar Forest.networkOne[77].batteryStats 	account 	2
scalar Forest.networkOne[77].batteryStats 	"energy (mWs)" 	514.23598080004
scalar Forest.networkOne[77].batteryStats 	"time (s)" 	9.851264
scalar Forest.networkOne[77].batteryStats 	"account 2" 	514.23598080004
scalar Forest.networkOne[77].batteryStats 	account 	3
scalar Forest.networkOne[77].batteryStats 	"energy (mWs)" 	190.50024960006
scalar Forest.networkOne[77].batteryStats 	"time (s)" 	3.377664
scalar Forest.networkOne[77].batteryStats 	"account 3" 	190.50024960006
scalar Forest.networkOne[77].batteryStats 	account 	4
scalar Forest.networkOne[77].batteryStats 	"energy (mWs)" 	0
scalar Forest.networkOne[77].batteryStats 	"time (s)" 	0
scalar Forest.networkOne[77].batteryStats 	"account 4" 	0
scalar Forest.networkOne[78].nic.mac 	nbTxFrames 	8754
scalar Forest.networkOne[78].nic.mac 	nbRxFrames 	32935
scalar Forest.networkOne[78].nic.mac 	nbDroppedFrames 	1221
scalar Forest.networkOne[78].nic.mac 	nbMissedAcks 	0
scalar Forest.networkOne[78].nic.mac 	nbRecvdAcks 	0
scalar Forest.networkOne[78].nic.mac 	nbTxAcks 	0
scalar Forest.networkOne[78].nic.mac 	nbDuplicates 	0
scalar Forest.networkOne[78].nic.mac 	meanBackoff 	0.0027031026948289
scalar Forest.networkOne[78].nic.mac 	nbBackoffs 	21968
scalar Forest.networkOne[78].nic.mac 	backoffDurations 	59.381760000001
scalar Forest.networkOne[78].nic.phy 	nbFramesWithInterference 	25682
scalar Forest.networkOne[78].nic.phy 	nbFramesWithoutInterference 	340253
scalar Forest.networkOne[78].nic.phy 	nbFramesWithInterferencePartial 	25859
scalar Forest.networkOne[78].nic.phy 	nbFramesWithoutInterferencePartial 	3512
scalar Forest.networkOne[78].nic.phy 	nbFramesWithInterferenceDropped 	11812
scalar Forest.networkOne[78].nic.phy 	nbFramesWithoutInterferenceDropped 	46271
scalar Forest.networkOne[78].netwl 	nbDataPacketsForwarded 	4975
scalar Forest.networkOne[78].netwl 	nbDataPacketsReceived 	0
scalar Forest.networkOne[78].netwl 	nbDataPacketsSent 	5000
scalar Forest.networkOne[78].netwl 	nbDuplicatedFloodsReceived 	49176
scalar Forest.networkOne[78].netwl 	nbFloodsSent 	0
scalar Forest.networkOne[78].netwl 	nbPureUnicastSent 	5000
scalar Forest.networkOne[78].netwl 	nbRouteFloodsSent 	0
scalar Forest.networkOne[78].netwl 	nbRouteFloodsReceived 	5
scalar Forest.networkOne[78].netwl 	nbUnicastFloodForwarded 	4970
scalar Forest.networkOne[78].netwl 	nbPureUnicastForwarded 	0
scalar Forest.networkOne[78].netwl 	nbGetRouteFailures 	0
scalar Forest.networkOne[78].netwl 	nbRoutesRecorded 	1
scalar Forest.networkOne[78].netwl 	meanNbHops 	-nan
scalar Forest.networkOne[78].tranl 	nbAggrPktReceived 	0
scalar Forest.networkOne[78].tranl 	"nbAggrPktSentDown " 	0
scalar Forest.networkOne[78].appl 	"activity duration" 	-1
attr unit  s
scalar Forest.networkOne[78].appl 	firstPacketGeneration 	-1
attr unit  s
scalar Forest.networkOne[78].appl 	lastPacketReception 	-2
attr unit  s
scalar Forest.networkOne[78].appl 	nbPacketsSent 	5000
scalar Forest.networkOne[78].appl 	nbPacketsReceived 	0
statistic Forest.networkOne[78].appl 	latency
field count 0
field mean 0
field stddev -nan
field sum 0
field sqrsum 0
field min 0
field max 0
scalar Forest.networkOne[78].batteryStats 	nominal 	10800000
attr unit  mW-s
scalar Forest.networkOne[78].batteryStats 	total 	282523.19134068
attr unit  mW-s
scalar Forest.networkOne[78].batteryStats 	lifetime 	-1
attr unit  s
scalar Forest.networkOne[78].batteryStats 	"Mean power consumption" 	56.3917809552
attr unit  mW
scalar Forest.networkOne[78].batteryStats 	"num devices" 	1
scalar Forest.networkOne[78].batteryStats 	"physical layer" 	0
scalar Forest.networkOne[78].batteryStats 	"device total (mWs)" 	282523.19133683
scalar Forest.networkOne[78].batteryStats 	account 	0
scalar Forest.networkOne[78].batteryStats 	"energy (mWs)" 	0
scalar Forest.networkOne[78].batteryStats 	"time (s)" 	0
scalar Forest.networkOne[78].batteryStats 	"account 0" 	0
scalar Forest.networkOne[78].batteryStats 	account 	1
scalar Forest.networkOne[78].batteryStats 	"energy (mWs)" 	281821.82355443
scalar Forest.networkOne[78].batteryStats 	"time (s)" 	4996.8408431645
scalar Forest.networkOne[78].batteryStats 	"account 1" 	281821.82355443
scalar Forest.networkOne[78].batteryStats 	account 	2
scalar Forest.networkOne[78].batteryStats 	"energy (mWs)" 	511.77715200004
scalar Forest.networkOne[78].batteryStats 	"time (s)" 	9.80416
scalar Forest.networkOne[78].batteryStats 	"account 2" 	511.77715200004
scalar Forest.networkOne[78].batteryStats 	account 	3
scalar Forest.networkOne[78].batteryStats 	"energy (mWs)" 	189.59063040006
scalar Forest.networkOne[78].batteryStats 	"time (s)" 	3.361536
scalar Forest.networkOne[78].batteryStats 	"account 3" 	189.59063040006
scalar Forest.networkOne[78].batteryStats 	account 	4
scalar Forest.networkOne[78].batteryStats 	"energy (mWs)" 	0
scalar Forest.networkOne[78].batteryStats 	"time (s)" 	0
scalar Forest.networkOne[78].batteryStats 	"account 4" 	0
scalar Forest.networkOne[79].nic.mac 	nbTxFrames 	8855
scalar Forest.networkOne[79].nic.mac 	nbRxFrames 	31582
scalar Forest.networkOne[79].nic.mac 	nbDroppedFrames 	1120
scalar Forest.networkOne[79].nic.mac 	nbMissedAcks 	0
scalar Forest.networkOne[79].nic.mac 	nbRecvdAcks 	0
scalar Forest.networkOne[79].nic.mac 	nbTxAcks 	0
scalar Forest.networkOne[79].nic.mac 	nbDuplicates 	0
scalar Forest.networkOne[79].nic.mac 	meanBackoff 	0.0026421008016217
scalar Forest.networkOne[79].nic.mac 	nbBackoffs 	21706
scalar Forest.networkOne[79].nic.mac 	backoffDurations 	57.349440000001
scalar Forest.networkOne[79].nic.phy 	nbFramesWithInterference 	24898
scalar Forest.networkOne[79].nic.phy 	nbFramesWithoutInterference 	303669
scalar Forest.networkOne[79].nic.phy 	nbFramesWithInterferencePartial 	22662
scalar Forest.networkOne[79].nic.phy 	nbFramesWithoutInterferencePartial 	3622
scalar Forest.networkOne[79].nic.phy 	nbFramesWithInterferenceDropped 	11745
scalar Forest.networkOne[79].nic.phy 	nbFramesWithoutInterferenceDropped 	46710
scalar Forest.networkOne[79].netwl 	nbDataPacketsForwarded 	4975
scalar Forest.networkOne[79].netwl 	nbDataPacketsReceived 	0
scalar Forest.networkOne[79].netwl 	nbDataPacketsSent 	5000
scalar Forest.networkOne[79].netwl 	nbDuplicatedFloodsReceived 	46795
scalar Forest.networkOne[79].netwl 	nbFloodsSent 	0
scalar Forest.networkOne[79].netwl 	nbPureUnicastSent 	5000
scalar Forest.networkOne[79].netwl 	nbRouteFloodsSent 	0
scalar Forest.networkOne[79].netwl 	nbRouteFloodsReceived 	5
scalar Forest.networkOne[79].netwl 	nbUnicastFloodForwarded 	4970
scalar Forest.networkOne[79].netwl 	nbPureUnicastForwarded 	0
scalar Forest.networkOne[79].netwl 	nbGetRouteFailures 	0
scalar Forest.networkOne[79].netwl 	nbRoutesRecorded 	1
scalar Forest.networkOne[79].netwl 	meanNbHops 	-nan
scalar Forest.networkOne[79].tranl 	nbAggrPktReceived 	0
scalar Forest.networkOne[79].tranl 	"nbAggrPktSentDown " 	0
scalar Forest.networkOne[79].appl 	"activity duration" 	-1
attr unit  s
scalar Forest.networkOne[79].appl 	firstPacketGeneration 	-1
attr unit  s
scalar Forest.networkOne[79].appl 	lastPacketReception 	-2
attr unit  s
scalar Forest.networkOne[79].appl 	nbPacketsSent 	5000
scalar Forest.networkOne[79].appl 	nbPacketsReceived 	0
statistic Forest.networkOne[79].appl 	latency
field count 0
field mean 0
field stddev -nan
field sum 0
field sqrsum 0
field min 0
field max 0
scalar Forest.networkOne[79].batteryStats 	nominal 	10800000
attr unit  mW-s
scalar Forest.networkOne[79].batteryStats 	total 	282522.71569911
attr unit  mW-s
scalar Forest.networkOne[79].batteryStats 	lifetime 	-1
attr unit  s
scalar Forest.networkOne[79].batteryStats 	"Mean power consumption" 	56.391686016887
attr unit  mW
scalar Forest.networkOne[79].batteryStats 	"num devices" 	1
scalar Forest.networkOne[79].batteryStats 	"physical layer" 	0
scalar Forest.networkOne[79].batteryStats 	"device total (mWs)" 	282522.71569523
scalar Forest.networkOne[79].batteryStats 	account 	0
scalar Forest.networkOne[79].batteryStats 	"energy (mWs)" 	0
scalar Forest.networkOne[79].batteryStats 	"time (s)" 	0
scalar Forest.networkOne[79].batteryStats 	"account 0" 	0
scalar Forest.networkOne[79].batteryStats 	account 	1
scalar Forest.networkOne[79].batteryStats 	"energy (mWs)" 	281813.24894963
scalar Forest.networkOne[79].batteryStats 	"time (s)" 	4996.6888111645
scalar Forest.networkOne[79].batteryStats 	"account 1" 	281813.24894963
scalar Forest.networkOne[79].batteryStats 	account 	2
scalar Forest.networkOne[79].batteryStats 	"energy (mWs)" 	517.68869760003
scalar Forest.networkOne[79].batteryStats 	"time (s)" 	9.917408
scalar Forest.networkOne[79].batteryStats 	"account 2" 	517.68869760003
scalar Forest.networkOne[79].batteryStats 	account 	3
scalar Forest.networkOne[79].batteryStats 	"energy (mWs)" 	191.77804800006
scalar Forest.networkOne[79].batteryStats 	"time (s)" 	3.40032
scalar Forest.networkOne[79].batteryStats 	"account 3" 	191.77804800006
scalar Forest.networkOne[79].batteryStats 	account 	4
scalar Forest.networkOne[79].batteryStats 	"energy (mWs)" 	0
scalar Forest.networkOne[79].batteryStats 	"time (s)" 	0
scalar Forest.networkOne[79].batteryStats 	"account 4" 	0
scalar Forest.networkOne[80].nic.mac 	nbTxFrames 	13135
scalar Forest.networkOne[80].nic.mac 	nbRxFrames 	33069
scalar Forest.networkOne[80].nic.mac 	nbDroppedFrames 	1106
scalar Forest.networkOne[80].nic.mac 	nbMissedAcks 	0
scalar Forest.networkOne[80].nic.mac 	nbRecvdAcks 	0
scalar Forest.networkOne[80].nic.mac 	nbTxAcks 	0
scalar Forest.networkOne[80].nic.mac 	nbDuplicates 	0
scalar Forest.networkOne[80].nic.mac 	meanBackoff 	0.0024412011787966
scalar Forest.networkOne[80].nic.mac 	nbBackoffs 	26807
scalar Forest.networkOne[80].nic.mac 	backoffDurations 	65.441280000002
scalar Forest.networkOne[80].nic.phy 	nbFramesWithInterference 	23311
scalar Forest.networkOne[80].nic.phy 	nbFramesWithoutInterference 	257202
scalar Forest.networkOne[80].nic.phy 	nbFramesWithInterferencePartial 	18690
scalar Forest.networkOne[80].nic.phy 	nbFramesWithoutInterferencePartial 	3514
scalar Forest.networkOne[80].nic.phy 	nbFramesWithInterferenceDropped 	11575
scalar Forest.networkOne[80].nic.phy 	nbFramesWithoutInterferenceDropped 	46647
scalar Forest.networkOne[80].netwl 	nbDataPacketsForwarded 	9241
scalar Forest.networkOne[80].netwl 	nbDataPacketsReceived 	0
scalar Forest.networkOne[80].netwl 	nbDataPacketsSent 	5000
scalar Forest.networkOne[80].netwl 	nbDuplicatedFloodsReceived 	43607
scalar Forest.networkOne[80].netwl 	nbFloodsSent 	0
scalar Forest.networkOne[80].netwl 	nbPureUnicastSent 	5000
scalar Forest.networkOne[80].netwl 	nbRouteFloodsSent 	0
scalar Forest.networkOne[80].netwl 	nbRouteFloodsReceived 	5
scalar Forest.networkOne[80].netwl 	nbUnicastFloodForwarded 	4970
scalar Forest.networkOne[80].netwl 	nbPureUnicastForwarded 	4266
scalar Forest.networkOne[80].netwl 	nbGetRouteFailures 	0
scalar Forest.networkOne[80].netwl 	nbRoutesRecorded 	1
scalar Forest.networkOne[80].netwl 	meanNbHops 	-nan
scalar Forest.networkOne[80].tranl 	nbAggrPktReceived 	0
scalar Forest.networkOne[80].tranl 	"nbAggrPktSentDown " 	0
scalar Forest.networkOne[80].appl 	"activity duration" 	-1
attr unit  s
scalar Forest.networkOne[80].appl 	firstPacketGeneration 	-1
attr unit  s
scalar Forest.networkOne[80].appl 	lastPacketReception 	-2
attr unit  s
scalar Forest.networkOne[80].appl 	nbPacketsSent 	5000
scalar Forest.networkOne[80].appl 	nbPacketsReceived 	0
statistic Forest.networkOne[80].appl 	latency
field count 0
field mean 0
field stddev -nan
field sum 0
field sqrsum 0
field min 0
field max 0
scalar Forest.networkOne[80].batteryStats 	nominal 	10800000
attr unit  mW-s
scalar Forest.networkOne[80].batteryStats 	total 	282502.58311848
attr unit  mW-s
scalar Forest.networkOne[80].batteryStats 	lifetime 	-1
attr unit  s
scalar Forest.networkOne[80].batteryStats 	"Mean power consumption" 	56.387667542964
attr unit  mW
scalar Forest.networkOne[80].batteryStats 	"num devices" 	1
scalar Forest.networkOne[80].batteryStats 	"physical layer" 	0
scalar Forest.networkOne[80].batteryStats 	"device total (mWs)" 	282502.58311281
scalar Forest.networkOne[80].batteryStats 	account 	0
scalar Forest.networkOne[80].batteryStats 	"energy (mWs)" 	0
scalar Forest.networkOne[80].batteryStats 	"time (s)" 	0
scalar Forest.networkOne[80].batteryStats 	"account 0" 	0
scalar Forest.networkOne[80].batteryStats 	account 	1
scalar Forest.networkOne[80].batteryStats 	"energy (mWs)" 	281450.20260081
scalar Forest.networkOne[80].batteryStats 	"time (s)" 	4990.2518191645
scalar Forest.networkOne[80].batteryStats 	"account 1" 	281450.20260081
scalar Forest.networkOne[80].batteryStats 	account 	2
scalar Forest.networkOne[80].batteryStats 	"energy (mWs)" 	767.90793599985
scalar Forest.networkOne[80].batteryStats 	"time (s)" 	14.71088
scalar Forest.networkOne[80].batteryStats 	"account 2" 	767.90793599985
scalar Forest.networkOne[80].batteryStats 	account 	3
scalar Forest.networkOne[80].batteryStats 	"energy (mWs)" 	284.47257600017
scalar Forest.networkOne[80].batteryStats 	"time (s)" 	5.04384
scalar Forest.networkOne[80].batteryStats 	"account 3" 	284.47257600017
scalar Forest.networkOne[80].batteryStats 	account 	4
scalar Forest.networkOne[80].batteryStats 	"energy (mWs)" 	0
scalar Forest.networkOne[80].batteryStats 	"time (s)" 	0
scalar Forest.networkOne[80].batteryStats 	"account 4" 	0
