version 2
run Nodes_in_grid-2-20130618-16:57:40-14484
attr configname Nodes_in_grid
attr datetime 20130618-16:57:40
attr experiment Nodes_in_grid
attr inifile omnetpp.ini
attr iterationvars "$0=5000, $1=5000, $2=5000, $3=5000, $4=5000, $5=5000, $6=5000, $7=5000, $8=5000, $9=2500, $10=0, $11=0, $12=0, $13=0, $14=0, $15=0, $16=0, $17=0, $18=0, $19=0, $plan=3, $sensitivity=-100dBm, $20=0, $21=0"
attr iterationvars2 "$0=5000, $1=5000, $2=5000, $3=5000, $4=5000, $5=5000, $6=5000, $7=5000, $8=5000, $9=2500, $10=0, $11=0, $12=0, $13=0, $14=0, $15=0, $16=0, $17=0, $18=0, $19=0, $plan=3, $sensitivity=-100dBm, $20=0, $21=0, $repetition=0"
attr measurement "$0=5000, $1=5000, $2=5000, $3=5000, $4=5000, $5=5000, $6=5000, $7=5000, $8=5000, $9=2500, $10=0, $11=0, $12=0, $13=0, $14=0, $15=0, $16=0, $17=0, $18=0, $19=0, $plan=3, $sensitivity=-100dBm, $20=0, $21=0"
attr network Forest
attr plan 3
attr processid 14484
attr repetition 0
attr replication #0
attr resultdir results
attr runnumber 2
attr seedset 2
attr sensitivity -100dBm

scalar . 	plan 	3
scalar . 	sensitivity 	-100
attr unit  dBm
scalar Forest.networkOne[0].nic.mac 	nbTxFrames 	2489
scalar Forest.networkOne[0].nic.mac 	nbRxFrames 	115442
scalar Forest.networkOne[0].nic.mac 	nbDroppedFrames 	16
scalar Forest.networkOne[0].nic.mac 	nbMissedAcks 	0
scalar Forest.networkOne[0].nic.mac 	nbRecvdAcks 	0
scalar Forest.networkOne[0].nic.mac 	nbTxAcks 	0
scalar Forest.networkOne[0].nic.mac 	nbDuplicates 	0
scalar Forest.networkOne[0].nic.mac 	meanBackoff 	0.0014477095709571
scalar Forest.networkOne[0].nic.mac 	nbBackoffs 	3030
scalar Forest.networkOne[0].nic.mac 	backoffDurations 	4.38656
scalar Forest.networkOne[0].nic.phy 	nbFramesWithInterference 	17391
scalar Forest.networkOne[0].nic.phy 	nbFramesWithoutInterference 	118433
scalar Forest.networkOne[0].nic.phy 	nbFramesWithInterferencePartial 	6093
scalar Forest.networkOne[0].nic.phy 	nbFramesWithoutInterferencePartial 	1762
scalar Forest.networkOne[0].nic.phy 	nbFramesWithInterferenceDropped 	6216
scalar Forest.networkOne[0].nic.phy 	nbFramesWithoutInterferenceDropped 	23338
scalar Forest.networkOne[0].netwl 	nbDataPacketsForwarded 	0
scalar Forest.networkOne[0].netwl 	nbDataPacketsReceived 	92122
scalar Forest.networkOne[0].netwl 	nbDataPacketsSent 	2500
scalar Forest.networkOne[0].netwl 	nbDuplicatedFloodsReceived 	24049
scalar Forest.networkOne[0].netwl 	nbFloodsSent 	2505
scalar Forest.networkOne[0].netwl 	nbPureUnicastSent 	0
scalar Forest.networkOne[0].netwl 	nbRouteFloodsSent 	5
scalar Forest.networkOne[0].netwl 	nbRouteFloodsReceived 	0
scalar Forest.networkOne[0].netwl 	nbUnicastFloodForwarded 	0
scalar Forest.networkOne[0].netwl 	nbPureUnicastForwarded 	0
scalar Forest.networkOne[0].netwl 	nbGetRouteFailures 	2500
scalar Forest.networkOne[0].netwl 	nbRoutesRecorded 	0
scalar Forest.networkOne[0].netwl 	meanNbHops 	0.31774169036712
scalar Forest.networkOne[0].tranl 	nbAggrPktReceived 	0
scalar Forest.networkOne[0].tranl 	"nbAggrPktSentDown " 	0
scalar Forest.networkOne[0].appl 	latency1 	0.0055089247466155
attr unit  s
statistic Forest.networkOne[0].appl 	1
field count 2450
field mean 0.0055089247466155
field stddev 0.004031637335092
field sum 13.496865629208
field sqrsum 0.11415950699107
field min 0.003232
field max 0.046812701583
scalar Forest.networkOne[0].appl 	latency2 	0.0055570414983288
attr unit  s
statistic Forest.networkOne[0].appl 	2
field count 2406
field mean 0.0055570414983288
field stddev 0.0041458729422281
field sum 13.370241844979
field sqrsum 0.11563675997494
field min 0.003232
field max 0.048615574389
scalar Forest.networkOne[0].appl 	latency3 	0.0055413257560646
attr unit  s
statistic Forest.networkOne[0].appl 	3
field count 2138
field mean 0.0055413257560646
field stddev 0.0040579691550455
field sum 11.847354466466
field sqrsum 0.10084027234473
field min 0.003232
field max 0.050659860287
scalar Forest.networkOne[0].appl 	latency4 	0.0053664728558635
attr unit  s
statistic Forest.networkOne[0].appl 	4
field count 1743
field mean 0.0053664728558635
field stddev 0.0037470620444297
field sum 9.35376218777
field sqrsum 0.074655216527561
field min 0.003232
field max 0.047421752319
scalar Forest.networkOne[0].appl 	latency5 	0.0054668840481636
attr unit  s
statistic Forest.networkOne[0].appl 	5
field count 1247
field mean 0.0054668840481636
field stddev 0.0040014995818034
field sum 6.81720440806
field sqrsum 0.057219816664847
field min 0.003232
field max 0.04820071836
scalar Forest.networkOne[0].appl 	latency6 	0.005536632241419
attr unit  s
statistic Forest.networkOne[0].appl 	6
field count 809
field mean 0.005536632241419
field stddev 0.0041249322142538
field sum 4.479135483308
field sqrsum 0.038547499074496
field min 0.003232
field max 0.044750161427
scalar Forest.networkOne[0].appl 	latency7 	0.010695494287158
attr unit  s
statistic Forest.networkOne[0].appl 	7
field count 330
field mean 0.010695494287158
field stddev 0.0049964834628512
field sum 3.529513114762
field sqrsum 0.04596332201659
field min 0.006464
field max 0.042271135136
scalar Forest.networkOne[0].appl 	latency8 	0.010901883135784
attr unit  s
statistic Forest.networkOne[0].appl 	8
field count 334
field mean 0.010901883135784
field stddev 0.0054218096491906
field sum 3.641228967352
field sqrsum 0.049485127290099
field min 0.006464
field max 0.048904675377
scalar Forest.networkOne[0].appl 	latency9 	0.0055423510845385
attr unit  s
statistic Forest.networkOne[0].appl 	9
field count 2457
field mean 0.0055423510845385
field stddev 0.0042625276982856
field sum 13.617556614711
field sqrsum 0.12009669335428
field min 0.003232
field max 0.052102818338
scalar Forest.networkOne[0].appl 	latency10 	0.0050312652909573
attr unit  s
statistic Forest.networkOne[0].appl 	10
field count 4927
field mean 0.0050312652909573
field stddev 0.0033438944901757
field sum 24.789044088547
field sqrsum 0.17980096827911
field min 0.003232
field max 0.049900146875
scalar Forest.networkOne[0].appl 	latency11 	0.0055328704488394
attr unit  s
statistic Forest.networkOne[0].appl 	11
field count 2366
field mean 0.0055328704488394
field stddev 0.0040514479051691
field sum 13.090771481954
field sqrsum 0.11124919693844
field min 0.003232
field max 0.045713312118
scalar Forest.networkOne[0].appl 	latency12 	0.0054598919757151
attr unit  s
statistic Forest.networkOne[0].appl 	12
field count 2106
field mean 0.0054598919757151
field stddev 0.0040504861651331
field sum 11.498532500856
field sqrsum 0.097316297690056
field min 0.003232
field max 0.048837905056
scalar Forest.networkOne[0].appl 	latency13 	0.004973636677779
attr unit  s
statistic Forest.networkOne[0].appl 	13
field count 3384
field mean 0.004973636677779
field stddev 0.0031452898667288
field sum 16.830786517604
field sqrsum 0.11717772309348
field min 0.003232
field max 0.046535711037
scalar Forest.networkOne[0].appl 	latency14 	0.010996034784565
attr unit  s
statistic Forest.networkOne[0].appl 	14
field count 853
field mean 0.010996034784565
field stddev 0.0052758623278157
field sum 9.379617671234
field sqrsum 0.12685378643217
field min 0.006464
field max 0.050207662499
scalar Forest.networkOne[0].appl 	latency15 	0.0056760902055683
attr unit  s
statistic Forest.networkOne[0].appl 	15
field count 762
field mean 0.0056760902055683
field stddev 0.0042954379346804
field sum 4.325180736643
field sqrsum 0.038591164962148
field min 0.003232
field max 0.051673073101
scalar Forest.networkOne[0].appl 	latency16 	0.0097353630808211
attr unit  s
statistic Forest.networkOne[0].appl 	16
field count 1107
field mean 0.0097353630808211
field stddev 0.0032334672719906
field sum 10.777046930469
field sqrsum 0.1164820383297
field min 0.006464
field max 0.044842039536
scalar Forest.networkOne[0].appl 	latency17 	0.010867529582055
attr unit  s
statistic Forest.networkOne[0].appl 	17
field count 456
field mean 0.010867529582055
field stddev 0.0048513954205595
field sum 4.955593489417
field sqrsum 0.064563955917492
field min 0.006464
field max 0.048250888428
scalar Forest.networkOne[0].appl 	latency18 	0.0055022063267907
attr unit  s
statistic Forest.networkOne[0].appl 	18
field count 2403
field mean 0.0055022063267907
field stddev 0.0039265530591612
field sum 13.221801803278
field sqrsum 0.1097826825948
field min 0.003232
field max 0.056757604644
scalar Forest.networkOne[0].appl 	latency19 	0.0055990177197462
attr unit  s
statistic Forest.networkOne[0].appl 	19
field count 2360
field mean 0.0055990177197462
field stddev 0.0043163857467452
field sum 13.213681818601
field sqrsum 0.11793460621822
field min 0.003232
field max 0.059818492234
scalar Forest.networkOne[0].appl 	latency20 	0.0053141454169914
attr unit  s
statistic Forest.networkOne[0].appl 	20
field count 2209
field mean 0.0053141454169914
field stddev 0.0037319089360029
field sum 11.738947226134
field sqrsum 0.093133607231077
field min 0.003232
field max 0.050294723614
scalar Forest.networkOne[0].appl 	latency21 	0.0054868124368323
attr unit  s
statistic Forest.networkOne[0].appl 	21
field count 1926
field mean 0.0054868124368323
field stddev 0.0040973534498578
field sum 10.567600753339
field sqrsum 0.090299930930044
field min 0.003232
field max 0.045912206454
scalar Forest.networkOne[0].appl 	latency22 	0.010806281864391
attr unit  s
statistic Forest.networkOne[0].appl 	22
field count 629
field mean 0.010806281864391
field stddev 0.0047466677048141
field sum 6.797151292702
field sqrsum 0.087601309244201
field min 0.006464
field max 0.049443946414
scalar Forest.networkOne[0].appl 	latency23 	0.0054150426340858
attr unit  s
statistic Forest.networkOne[0].appl 	23
field count 1037
field mean 0.0054150426340858
field stddev 0.0038541875575538
field sum 5.615399211547
field sqrsum 0.045797159288979
field min 0.003232
field max 0.047840932234
scalar Forest.networkOne[0].appl 	latency24 	0.0053526503227567
attr unit  s
statistic Forest.networkOne[0].appl 	24
field count 707
field mean 0.0053526503227567
field stddev 0.0034384123744299
field sum 3.784323778189
field sqrsum 0.028602973730322
field min 0.003232
field max 0.039632125306
scalar Forest.networkOne[0].appl 	latency25 	0.010599408530294
attr unit  s
statistic Forest.networkOne[0].appl 	25
field count 608
field mean 0.010599408530294
field stddev 0.0042611529877043
field sum 6.444440386419
field sqrsum 0.079328813249048
field min 0.006464
field max 0.040204775737
scalar Forest.networkOne[0].appl 	latency26 	0.011142562338465
attr unit  s
statistic Forest.networkOne[0].appl 	26
field count 544
field mean 0.011142562338465
field stddev 0.0057656916438986
field sum 6.061553912125
field sqrsum 0.085592300005779
field min 0.006464
field max 0.071042174406
scalar Forest.networkOne[0].appl 	latency27 	0.0055624358192444
attr unit  s
statistic Forest.networkOne[0].appl 	27
field count 2173
field mean 0.0055624358192444
field stddev 0.0041459200641358
field sum 12.087173035218
field sqrsum 0.10456787894756
field min 0.003232
field max 0.048537592965
scalar Forest.networkOne[0].appl 	latency28 	0.0054491665257068
attr unit  s
statistic Forest.networkOne[0].appl 	28
field count 2111
field mean 0.0054491665257068
field stddev 0.0040215784061861
field sum 11.503190535767
field sqrsum 0.096808026777014
field min 0.003232
field max 0.059129124659
scalar Forest.networkOne[0].appl 	latency29 	0.0054377816664835
attr unit  s
statistic Forest.networkOne[0].appl 	29
field count 1903
field mean 0.0054377816664835
field stddev 0.0036614679590648
field sum 10.348098511318
field sqrsum 0.081769573532032
field min 0.003232
field max 0.039058816551
scalar Forest.networkOne[0].appl 	latency30 	0.0055099591282251
attr unit  s
statistic Forest.networkOne[0].appl 	30
field count 1595
field mean 0.0055099591282251
field stddev 0.0040428293549315
field sum 8.788384809519
field sqrsum 0.074476724997359
field min 0.003232
field max 0.05207818473
scalar Forest.networkOne[0].appl 	latency31 	0.0053904458334379
attr unit  s
statistic Forest.networkOne[0].appl 	31
field count 1247
field mean 0.0053904458334379
field stddev 0.0036085065604448
field sum 6.721885954297
field sqrsum 0.052458526352764
field min 0.003232
field max 0.044858760826
scalar Forest.networkOne[0].appl 	latency32 	0.0055983695569221
attr unit  s
statistic Forest.networkOne[0].appl 	32
field count 886
field mean 0.0055983695569221
field stddev 0.0040373513576414
field sum 4.960155427433
field sqrsum 0.042194465439311
field min 0.003232
field max 0.039551720247
scalar Forest.networkOne[0].appl 	latency33 	0.010954174136503
attr unit  s
statistic Forest.networkOne[0].appl 	33
field count 682
field mean 0.010954174136503
field stddev 0.0052057036761454
field sum 7.470746761095
field sqrsum 0.10029051882092
field min 0.006464
field max 0.045737586229
scalar Forest.networkOne[0].appl 	latency34 	0.01147686676252
attr unit  s
statistic Forest.networkOne[0].appl 	34
field count 658
field mean 0.01147686676252
field stddev 0.006136034211691
field sum 7.551778329738
field sqrsum 0.11140740542199
field min 0.006464
field max 0.052351478321
scalar Forest.networkOne[0].appl 	latency35 	0.010890881969128
attr unit  s
statistic Forest.networkOne[0].appl 	35
field count 594
field mean 0.010890881969128
field stddev 0.0048731743772682
field sum 6.469183889662
field sqrsum 0.084537580486072
field min 0.006464
field max 0.048202037109
scalar Forest.networkOne[0].appl 	latency36 	0.0055628965512842
attr unit  s
statistic Forest.networkOne[0].appl 	36
field count 1696
field mean 0.0055628965512842
field stddev 0.0039998658279335
field sum 9.434672550978
field sqrsum 0.079602288053624
field min 0.003232
field max 0.052451287198
scalar Forest.networkOne[0].appl 	latency37 	0.0049288636399347
attr unit  s
statistic Forest.networkOne[0].appl 	37
field count 3290
field mean 0.0049288636399347
field stddev 0.0027938037335306
field sum 16.215961375385
field sqrsum 0.10559802337232
field min 0.003232
field max 0.041360606356
scalar Forest.networkOne[0].appl 	latency38 	0.0054504491345773
attr unit  s
statistic Forest.networkOne[0].appl 	38
field count 1469
field mean 0.0054504491345773
field stddev 0.0037070145638746
field sum 8.006709778694
field sqrsum 0.063813357226005
field min 0.003232
field max 0.058280090002
scalar Forest.networkOne[0].appl 	latency39 	0.010642089498637
attr unit  s
statistic Forest.networkOne[0].appl 	39
field count 1577
field mean 0.010642089498637
field stddev 0.0045840662982203
field sum 16.78257513935
field sqrsum 0.21171920084109
field min 0.006464
field max 0.061282226948
scalar Forest.networkOne[0].appl 	latency40 	0.0049704991892864
attr unit  s
statistic Forest.networkOne[0].appl 	40
field count 1924
field mean 0.0049704991892864
field stddev 0.0028457347271879
field sum 9.563240440187
field sqrsum 0.063106929257357
field min 0.003232
field max 0.038693902285
scalar Forest.networkOne[0].appl 	latency41 	0.0058850049705944
attr unit  s
statistic Forest.networkOne[0].appl 	41
field count 715
field mean 0.0058850049705944
field stddev 0.0047580068779426
field sum 4.207778553975
field sqrsum 0.040926779132996
field min 0.003232
field max 0.041482771848
scalar Forest.networkOne[0].appl 	latency42 	0.010985683947345
attr unit  s
statistic Forest.networkOne[0].appl 	42
field count 650
field mean 0.010985683947345
field stddev 0.0048300943269716
field sum 7.140694565774
field sqrsum 0.093586461137745
field min 0.006464
field max 0.047104
scalar Forest.networkOne[0].appl 	latency43 	0.010103171509774
attr unit  s
statistic Forest.networkOne[0].appl 	43
field count 1361
field mean 0.010103171509774
field stddev 0.0042849605964943
field sum 13.750416424803
field sqrsum 0.16389362221698
field min 0.006464
field max 0.052682009796
scalar Forest.networkOne[0].appl 	latency44 	0.011131150293494
attr unit  s
statistic Forest.networkOne[0].appl 	44
field count 615
field mean 0.011131150293494
field stddev 0.0053154140336344
field sum 6.845657430499
field sqrsum 0.09354776829492
field min 0.006464
field max 0.053757198291
scalar Forest.networkOne[0].appl 	latency45 	0.0053968232548332
attr unit  s
statistic Forest.networkOne[0].appl 	45
field count 1211
field mean 0.0053968232548332
field stddev 0.0041949580172541
field sum 6.535552961603
field sqrsum 0.056564408253868
field min 0.003232
field max 0.05297242007
scalar Forest.networkOne[0].appl 	latency46 	0.0057157093463473
attr unit  s
statistic Forest.networkOne[0].appl 	46
field count 1238
field mean 0.0057157093463473
field stddev 0.0046732063025045
field sum 7.076048170778
field sqrsum 0.067459300954234
field min 0.003232
field max 0.054415344132
scalar Forest.networkOne[0].appl 	latency47 	0.0053994951098948
attr unit  s
statistic Forest.networkOne[0].appl 	47
field count 1074
field mean 0.0053994951098948
field stddev 0.0035808781665394
field sum 5.799057748027
field sqrsum 0.045070728652451
field min 0.003232
field max 0.043999085084
scalar Forest.networkOne[0].appl 	latency48 	0.005515515239347
attr unit  s
statistic Forest.networkOne[0].appl 	48
field count 925
field mean 0.005515515239347
field stddev 0.0040209753339141
field sum 5.101851596396
field sqrsum 0.043078796424423
field min 0.003232
field max 0.04653287455
scalar Forest.networkOne[0].appl 	latency49 	0.011115209699257
attr unit  s
statistic Forest.networkOne[0].appl 	49
field count 685
field mean 0.011115209699257
field stddev 0.0056982985759957
field sum 7.613918643991
field sqrsum 0.1068401973173
field min 0.006464
field max 0.053824
scalar Forest.networkOne[0].appl 	latency50 	0.011026232641028
attr unit  s
statistic Forest.networkOne[0].appl 	50
field count 676
field mean 0.011026232641028
field stddev 0.0053215346861376
field sum 7.453733265335
field sqrsum 0.1013017407334
field min 0.006464
field max 0.053163576462
scalar Forest.networkOne[0].appl 	latency51 	0.010400653007557
attr unit  s
statistic Forest.networkOne[0].appl 	51
field count 738
field mean 0.010400653007557
field stddev 0.0043994580812703
field sum 7.675681919577
field sqrsum 0.094096909790224
field min 0.006464
field max 0.042571304892
scalar Forest.networkOne[0].appl 	latency52 	0.010992488621287
attr unit  s
statistic Forest.networkOne[0].appl 	52
field count 684
field mean 0.010992488621287
field stddev 0.0051404845119453
field sum 7.51886221696
field sqrsum 0.10069899619994
field min 0.006464
field max 0.055884168318
scalar Forest.networkOne[0].appl 	latency53 	0.010895861607337
attr unit  s
statistic Forest.networkOne[0].appl 	53
field count 611
field mean 0.010895861607337
field stddev 0.0053259181664247
field sum 6.657371442083
field sqrsum 0.089840694534001
field min 0.006464
field max 0.052025846093
scalar Forest.networkOne[0].appl 	latency54 	0.010408060982983
attr unit  s
statistic Forest.networkOne[0].appl 	54
field count 291
field mean 0.010408060982983
field stddev 0.0038964336740523
field sum 3.028745746048
field sqrsum 0.035926207085941
field min 0.006464
field max 0.032384
scalar Forest.networkOne[0].appl 	latency55 	0.0055142934993583
attr unit  s
statistic Forest.networkOne[0].appl 	55
field count 843
field mean 0.0055142934993583
field stddev 0.0043463674746388
field sum 4.648549419959
field sqrsum 0.041539612257037
field min 0.003232
field max 0.052036502293
scalar Forest.networkOne[0].appl 	latency56 	0.011050174812656
attr unit  s
statistic Forest.networkOne[0].appl 	56
field count 491
field mean 0.011050174812656
field stddev 0.0052406835459722
field sum 5.425635833014
field sqrsum 0.073411958798836
field min 0.006464
field max 0.042776252115
scalar Forest.networkOne[0].appl 	latency57 	0.011092827182864
attr unit  s
statistic Forest.networkOne[0].appl 	57
field count 610
field mean 0.011092827182864
field stddev 0.0058120948252405
field sum 6.766624581547
field sqrsum 0.09563328886529
field min 0.006464
field max 0.045362330397
scalar Forest.networkOne[0].appl 	latency58 	0.010990549954735
attr unit  s
statistic Forest.networkOne[0].appl 	58
field count 633
field mean 0.010990549954735
field stddev 0.0050421945747644
field sum 6.957018121347
field sqrsum 0.092529250112681
field min 0.006464
field max 0.050370333421
scalar Forest.networkOne[0].appl 	latency59 	0.005118471067827
attr unit  s
statistic Forest.networkOne[0].appl 	59
field count 341
field mean 0.005118471067827
field stddev 0.0025030185033477
field sum 1.745398634129
field sqrsum 0.011063906964168
field min 0.003232
field max 0.025659275876
scalar Forest.networkOne[0].appl 	latency60 	0.010895586467352
attr unit  s
statistic Forest.networkOne[0].appl 	60
field count 678
field mean 0.010895586467352
field stddev 0.0054140603015628
field sum 7.387207624865
field sqrsum 0.10033221656745
field min 0.006464
field max 0.053056309694
scalar Forest.networkOne[0].appl 	latency61 	0.0054057261316649
attr unit  s
statistic Forest.networkOne[0].appl 	61
field count 191
field mean 0.0054057261316649
field stddev 0.0044448065381837
field sum 1.032493691148
field sqrsum 0.0093350761077753
field min 0.003232
field max 0.047179023493
scalar Forest.networkOne[0].appl 	latency62 	0.011139023902199
attr unit  s
statistic Forest.networkOne[0].appl 	62
field count 523
field mean 0.011139023902199
field stddev 0.0051579113302934
field sum 5.82570950085
field sqrsum 0.078780031107225
field min 0.006464
field max 0.045114255555
scalar Forest.networkOne[0].appl 	latency63 	0.010850260669192
attr unit  s
statistic Forest.networkOne[0].appl 	63
field count 1126
field mean 0.010850260669192
field stddev 0.0055369092686542
field sum 12.21739351351
field sqrsum 0.16705143910015
field min 0.006464
field max 0.065769053174
scalar Forest.networkOne[0].appl 	latency64 	0.004821937991256
attr unit  s
statistic Forest.networkOne[0].appl 	64
field count 1090
field mean 0.004821937991256
field stddev 0.0021172399652721
field sum 5.255912410469
field sqrsum 0.030225349552578
field min 0.003232
field max 0.02840983388
scalar Forest.networkOne[0].appl 	latency65 	0.010621485708907
attr unit  s
statistic Forest.networkOne[0].appl 	65
field count 462
field mean 0.010621485708907
field stddev 0.0052970948725718
field sum 4.907126397515
field sqrsum 0.065056270598047
field min 0.006464
field max 0.052778646895
scalar Forest.networkOne[0].appl 	latency66 	0.010569885576723
attr unit  s
statistic Forest.networkOne[0].appl 	66
field count 773
field mean 0.010569885576723
field stddev 0.0048641096735901
field sum 8.170521550807
field sqrsum 0.10462666046588
field min 0.006464
field max 0.058989542916
scalar Forest.networkOne[0].appl 	latency67 	0.0098235855299772
attr unit  s
statistic Forest.networkOne[0].appl 	67
field count 1270
field mean 0.0098235855299772
field stddev 0.0041611999043564
field sum 12.475953623071
field sqrsum 0.14453207439752
field min 0.006464
field max 0.051679497504
scalar Forest.networkOne[0].appl 	latency68 	0.011140550639136
attr unit  s
statistic Forest.networkOne[0].appl 	68
field count 595
field mean 0.011140550639136
field stddev 0.0055387732594178
field sum 6.628627630286
field sqrsum 0.092069299259408
field min 0.006464
field max 0.058855766855
scalar Forest.networkOne[0].appl 	latency69 	0.010806380290234
attr unit  s
statistic Forest.networkOne[0].appl 	69
field count 572
field mean 0.010806380290234
field stddev 0.0047982255884201
field sum 6.181249526014
field sqrsum 0.079943048230236
field min 0.006464
field max 0.042771710345
scalar Forest.networkOne[0].appl 	latency70 	0.0096894320252402
attr unit  s
statistic Forest.networkOne[0].appl 	70
field count 1103
field mean 0.0096894320252402
field stddev 0.003264229986764
field sum 10.68744352384
field sqrsum 0.11529728508979
field min 0.006464
field max 0.05896521009
scalar Forest.networkOne[0].appl 	latency71 	0.010705848915146
attr unit  s
statistic Forest.networkOne[0].appl 	71
field count 219
field mean 0.010705848915146
field stddev 0.0053232364614927
field sum 2.344580912417
field sqrsum 0.031278161538314
field min 0.006464
field max 0.047494890008
scalar Forest.networkOne[0].appl 	latency72 	0.010691806681053
attr unit  s
statistic Forest.networkOne[0].appl 	72
field count 208
field mean 0.010691806681053
field stddev 0.0053574874379195
field sum 2.223895789659
field sqrsum 0.029718916892867
field min 0.006464
field max 0.055569779545
scalar Forest.networkOne[0].appl 	latency73 	0.010345340979527
attr unit  s
statistic Forest.networkOne[0].appl 	73
field count 459
field mean 0.010345340979527
field stddev 0.0045301846168274
field sum 4.748511509603
field sqrsum 0.058524308991496
field min 0.006464
field max 0.05131970257
scalar Forest.networkOne[0].appl 	latency74 	0.01041649942756
attr unit  s
statistic Forest.networkOne[0].appl 	74
field count 990
field mean 0.01041649942756
field stddev 0.0044912857709195
field sum 10.312334433284
field sqrsum 0.12736818547053
field min 0.006464
field max 0.052819135549
scalar Forest.networkOne[0].appl 	latency75 	0.010966960462061
attr unit  s
statistic Forest.networkOne[0].appl 	75
field count 875
field mean 0.010966960462061
field stddev 0.0056995069865614
field sum 9.596090404303
field sqrsum 0.13363129207809
field min 0.006464
field max 0.052544
scalar Forest.networkOne[0].appl 	latency76 	0.010638942296412
attr unit  s
statistic Forest.networkOne[0].appl 	76
field count 750
field mean 0.010638942296412
field stddev 0.0049304877113277
field sum 7.979206722309
field sqrsum 0.10309829198438
field min 0.006464
field max 0.04939136791
scalar Forest.networkOne[0].appl 	latency77 	0.010963851134119
attr unit  s
statistic Forest.networkOne[0].appl 	77
field count 478
field mean 0.010963851134119
field stddev 0.0050346180709313
field sum 5.240720842109
field sqrsum 0.06954918298867
field min 0.006464
field max 0.041024079158
scalar Forest.networkOne[0].appl 	latency78 	0.011093237130826
attr unit  s
statistic Forest.networkOne[0].appl 	78
field count 436
field mean 0.011093237130826
field stddev 0.0052159117712384
field sum 4.83665138904
field sqrsum 0.065488615766082
field min 0.006464
field max 0.051982381618
scalar Forest.networkOne[0].appl 	latency79 	0.010763921977452
attr unit  s
statistic Forest.networkOne[0].appl 	79
field count 321
field mean 0.010763921977452
field stddev 0.0054782382854158
field sum 3.455218954762
field sqrsum 0.046795257551845
field min 0.006464
field max 0.054291644455
scalar Forest.networkOne[0].appl 	latency80 	0.015885492910715
attr unit  s
statistic Forest.networkOne[0].appl 	80
field count 508
field mean 0.015885492910715
field stddev 0.0054787986491972
field sum 8.069830398643
field sqrsum 0.14341197155
field min 0.009696
field max 0.054374100087
scalar Forest.networkOne[0].appl 	"activity duration" 	4999.6162549925
attr unit  s
scalar Forest.networkOne[0].appl 	firstPacketGeneration 	10.025926227914
attr unit  s
scalar Forest.networkOne[0].appl 	lastPacketReception 	5009.6421812204
attr unit  s
scalar Forest.networkOne[0].appl 	nbPacketsSent 	2500
scalar Forest.networkOne[0].appl 	nbPacketsReceived 	92122
statistic Forest.networkOne[0].appl 	latency
field count 92122
field mean 0.007063170257688
field stddev 0.004916084601739
field sum 650.67337047873
field sqrsum 6.822186790914
field min 0.003232
field max 0.071042174406
scalar Forest.networkOne[0].batteryStats 	nominal 	10800000
attr unit  mW-s
scalar Forest.networkOne[0].batteryStats 	total 	282555.99142426
attr unit  mW-s
scalar Forest.networkOne[0].batteryStats 	lifetime 	-1
attr unit  s
scalar Forest.networkOne[0].batteryStats 	"Mean power consumption" 	56.39766332181
attr unit  mW
scalar Forest.networkOne[0].batteryStats 	"num devices" 	1
scalar Forest.networkOne[0].batteryStats 	"physical layer" 	0
scalar Forest.networkOne[0].batteryStats 	"device total (mWs)" 	282555.99142322
scalar Forest.networkOne[0].batteryStats 	account 	0
scalar Forest.networkOne[0].batteryStats 	"energy (mWs)" 	0
scalar Forest.networkOne[0].batteryStats 	"time (s)" 	0
scalar Forest.networkOne[0].batteryStats 	"account 0" 	0
scalar Forest.networkOne[0].batteryStats 	account 	1
scalar Forest.networkOne[0].batteryStats 	"energy (mWs)" 	282356.58546482
scalar Forest.networkOne[0].batteryStats 	"time (s)" 	5006.3224373194
scalar Forest.networkOne[0].batteryStats 	"account 1" 	282356.58546482
scalar Forest.networkOne[0].batteryStats 	account 	2
scalar Forest.networkOne[0].batteryStats 	"energy (mWs)" 	145.500192
scalar Forest.networkOne[0].batteryStats 	"time (s)" 	2.78736
scalar Forest.networkOne[0].batteryStats 	"account 2" 	145.500192
scalar Forest.networkOne[0].batteryStats 	account 	3
scalar Forest.networkOne[0].batteryStats 	"energy (mWs)" 	53.905766399996
scalar Forest.networkOne[0].batteryStats 	"time (s)" 	0.955776
scalar Forest.networkOne[0].batteryStats 	"account 3" 	53.905766399996
scalar Forest.networkOne[0].batteryStats 	account 	4
scalar Forest.networkOne[0].batteryStats 	"energy (mWs)" 	0
scalar Forest.networkOne[0].batteryStats 	"time (s)" 	0
scalar Forest.networkOne[0].batteryStats 	"account 4" 	0
scalar Forest.networkOne[1].nic.mac 	nbTxFrames 	4237
scalar Forest.networkOne[1].nic.mac 	nbRxFrames 	16919
scalar Forest.networkOne[1].nic.mac 	nbDroppedFrames 	747
scalar Forest.networkOne[1].nic.mac 	nbMissedAcks 	0
scalar Forest.networkOne[1].nic.mac 	nbRecvdAcks 	0
scalar Forest.networkOne[1].nic.mac 	nbTxAcks 	0
scalar Forest.networkOne[1].nic.mac 	nbDuplicates 	0
scalar Forest.networkOne[1].nic.mac 	meanBackoff 	0.0027271646094242
scalar Forest.networkOne[1].nic.mac 	nbBackoffs 	11099
scalar Forest.networkOne[1].nic.mac 	backoffDurations 	30.268799999999
scalar Forest.networkOne[1].nic.phy 	nbFramesWithInterference 	18099
scalar Forest.networkOne[1].nic.phy 	nbFramesWithoutInterference 	140306
scalar Forest.networkOne[1].nic.phy 	nbFramesWithInterferencePartial 	6646
scalar Forest.networkOne[1].nic.phy 	nbFramesWithoutInterferencePartial 	1736
scalar Forest.networkOne[1].nic.phy 	nbFramesWithInterferenceDropped 	5878
scalar Forest.networkOne[1].nic.phy 	nbFramesWithoutInterferenceDropped 	23949
scalar Forest.networkOne[1].netwl 	nbDataPacketsForwarded 	2484
scalar Forest.networkOne[1].netwl 	nbDataPacketsReceived 	0
scalar Forest.networkOne[1].netwl 	nbDataPacketsSent 	2500
scalar Forest.networkOne[1].netwl 	nbDuplicatedFloodsReceived 	25364
scalar Forest.networkOne[1].netwl 	nbFloodsSent 	0
scalar Forest.networkOne[1].netwl 	nbPureUnicastSent 	2500
scalar Forest.networkOne[1].netwl 	nbRouteFloodsSent 	0
scalar Forest.networkOne[1].netwl 	nbRouteFloodsReceived 	5
scalar Forest.networkOne[1].netwl 	nbUnicastFloodForwarded 	2479
scalar Forest.networkOne[1].netwl 	nbPureUnicastForwarded 	0
scalar Forest.networkOne[1].netwl 	nbGetRouteFailures 	0
scalar Forest.networkOne[1].netwl 	nbRoutesRecorded 	1
scalar Forest.networkOne[1].netwl 	meanNbHops 	-nan
scalar Forest.networkOne[1].tranl 	nbAggrPktReceived 	0
scalar Forest.networkOne[1].tranl 	"nbAggrPktSentDown " 	0
scalar Forest.networkOne[1].appl 	"activity duration" 	-1
attr unit  s
scalar Forest.networkOne[1].appl 	firstPacketGeneration 	-1
attr unit  s
scalar Forest.networkOne[1].appl 	lastPacketReception 	-2
attr unit  s
scalar Forest.networkOne[1].appl 	nbPacketsSent 	2500
scalar Forest.networkOne[1].appl 	nbPacketsReceived 	0
statistic Forest.networkOne[1].appl 	latency
field count 0
field mean 0
field stddev -nan
field sum 0
field sqrsum 0
field min 0
field max 0
scalar Forest.networkOne[1].batteryStats 	nominal 	10800000
attr unit  mW-s
scalar Forest.networkOne[1].batteryStats 	total 	282547.76856421
attr unit  mW-s
scalar Forest.networkOne[1].batteryStats 	lifetime 	-1
attr unit  s
scalar Forest.networkOne[1].batteryStats 	"Mean power consumption" 	56.39602205386
attr unit  mW
scalar Forest.networkOne[1].batteryStats 	"num devices" 	1
scalar Forest.networkOne[1].batteryStats 	"physical layer" 	0
scalar Forest.networkOne[1].batteryStats 	"device total (mWs)" 	282547.76856242
scalar Forest.networkOne[1].batteryStats 	account 	0
scalar Forest.networkOne[1].batteryStats 	"energy (mWs)" 	0
scalar Forest.networkOne[1].batteryStats 	"time (s)" 	0
scalar Forest.networkOne[1].batteryStats 	"account 0" 	0
scalar Forest.networkOne[1].batteryStats 	account 	1
scalar Forest.networkOne[1].batteryStats 	"energy (mWs)" 	282208.30670642
scalar Forest.networkOne[1].batteryStats 	"time (s)" 	5003.6933813194
scalar Forest.networkOne[1].batteryStats 	"account 1" 	282208.30670642
scalar Forest.networkOne[1].batteryStats 	account 	2
scalar Forest.networkOne[1].batteryStats 	"energy (mWs)" 	247.69860479997
scalar Forest.networkOne[1].batteryStats 	"time (s)" 	4.745184
scalar Forest.networkOne[1].batteryStats 	"account 2" 	247.69860479997
scalar Forest.networkOne[1].batteryStats 	account 	3
scalar Forest.networkOne[1].batteryStats 	"energy (mWs)" 	91.763251199992
scalar Forest.networkOne[1].batteryStats 	"time (s)" 	1.627008
scalar Forest.networkOne[1].batteryStats 	"account 3" 	91.763251199992
scalar Forest.networkOne[1].batteryStats 	account 	4
scalar Forest.networkOne[1].batteryStats 	"energy (mWs)" 	0
scalar Forest.networkOne[1].batteryStats 	"time (s)" 	0
scalar Forest.networkOne[1].batteryStats 	"account 4" 	0
scalar Forest.networkOne[2].nic.mac 	nbTxFrames 	4231
scalar Forest.networkOne[2].nic.mac 	nbRxFrames 	18119
scalar Forest.networkOne[2].nic.mac 	nbDroppedFrames 	753
scalar Forest.networkOne[2].nic.mac 	nbMissedAcks 	0
scalar Forest.networkOne[2].nic.mac 	nbRecvdAcks 	0
scalar Forest.networkOne[2].nic.mac 	nbTxAcks 	0
scalar Forest.networkOne[2].nic.mac 	nbDuplicates 	0
scalar Forest.networkOne[2].nic.mac 	meanBackoff 	0.0027481896551724
scalar Forest.networkOne[2].nic.mac 	nbBackoffs 	11136
scalar Forest.networkOne[2].nic.mac 	backoffDurations 	30.603839999999
scalar Forest.networkOne[2].nic.phy 	nbFramesWithInterference 	18882
scalar Forest.networkOne[2].nic.phy 	nbFramesWithoutInterference 	160147
scalar Forest.networkOne[2].nic.phy 	nbFramesWithInterferencePartial 	7518
scalar Forest.networkOne[2].nic.phy 	nbFramesWithoutInterferencePartial 	1780
scalar Forest.networkOne[2].nic.phy 	nbFramesWithInterferenceDropped 	5849
scalar Forest.networkOne[2].nic.phy 	nbFramesWithoutInterferenceDropped 	23873
scalar Forest.networkOne[2].netwl 	nbDataPacketsForwarded 	2484
scalar Forest.networkOne[2].netwl 	nbDataPacketsReceived 	0
scalar Forest.networkOne[2].netwl 	nbDataPacketsSent 	2500
scalar Forest.networkOne[2].netwl 	nbDuplicatedFloodsReceived 	27247
scalar Forest.networkOne[2].netwl 	nbFloodsSent 	0
scalar Forest.networkOne[2].netwl 	nbPureUnicastSent 	2500
scalar Forest.networkOne[2].netwl 	nbRouteFloodsSent 	0
scalar Forest.networkOne[2].netwl 	nbRouteFloodsReceived 	5
scalar Forest.networkOne[2].netwl 	nbUnicastFloodForwarded 	2479
scalar Forest.networkOne[2].netwl 	nbPureUnicastForwarded 	0
scalar Forest.networkOne[2].netwl 	nbGetRouteFailures 	0
scalar Forest.networkOne[2].netwl 	nbRoutesRecorded 	1
scalar Forest.networkOne[2].netwl 	meanNbHops 	-nan
scalar Forest.networkOne[2].tranl 	nbAggrPktReceived 	0
scalar Forest.networkOne[2].tranl 	"nbAggrPktSentDown " 	0
scalar Forest.networkOne[2].appl 	"activity duration" 	-1
attr unit  s
scalar Forest.networkOne[2].appl 	firstPacketGeneration 	-1
attr unit  s
scalar Forest.networkOne[2].appl 	lastPacketReception 	-2
attr unit  s
scalar Forest.networkOne[2].appl 	nbPacketsSent 	2500
scalar Forest.networkOne[2].appl 	nbPacketsReceived 	0
statistic Forest.networkOne[2].appl 	latency
field count 0
field mean 0
field stddev -nan
field sum 0
field sqrsum 0
field min 0
field max 0
scalar Forest.networkOne[2].batteryStats 	nominal 	10800000
attr unit  mW-s
scalar Forest.networkOne[2].batteryStats 	total 	282547.79705698
attr unit  mW-s
scalar Forest.networkOne[2].batteryStats 	lifetime 	-1
attr unit  s
scalar Forest.networkOne[2].batteryStats 	"Mean power consumption" 	56.396027740966
attr unit  mW
scalar Forest.networkOne[2].batteryStats 	"num devices" 	1
scalar Forest.networkOne[2].batteryStats 	"physical layer" 	0
scalar Forest.networkOne[2].batteryStats 	"device total (mWs)" 	282547.79705522
scalar Forest.networkOne[2].batteryStats 	account 	0
scalar Forest.networkOne[2].batteryStats 	"energy (mWs)" 	0
scalar Forest.networkOne[2].batteryStats 	"time (s)" 	0
scalar Forest.networkOne[2].batteryStats 	"account 0" 	0
scalar Forest.networkOne[2].batteryStats 	account 	1
scalar Forest.networkOne[2].batteryStats 	"energy (mWs)" 	282208.81926962
scalar Forest.networkOne[2].batteryStats 	"time (s)" 	5003.7024693194
scalar Forest.networkOne[2].batteryStats 	"account 1" 	282208.81926962
scalar Forest.networkOne[2].batteryStats 	account 	2
scalar Forest.networkOne[2].batteryStats 	"energy (mWs)" 	247.34447999997
scalar Forest.networkOne[2].batteryStats 	"time (s)" 	4.7384
scalar Forest.networkOne[2].batteryStats 	"account 2" 	247.34447999997
scalar Forest.networkOne[2].batteryStats 	account 	3
scalar Forest.networkOne[2].batteryStats 	"energy (mWs)" 	91.633305599992
scalar Forest.networkOne[2].batteryStats 	"time (s)" 	1.624704
scalar Forest.networkOne[2].batteryStats 	"account 3" 	91.633305599992
scalar Forest.networkOne[2].batteryStats 	account 	4
scalar Forest.networkOne[2].batteryStats 	"energy (mWs)" 	0
scalar Forest.networkOne[2].batteryStats 	"time (s)" 	0
scalar Forest.networkOne[2].batteryStats 	"account 4" 	0
scalar Forest.networkOne[3].nic.mac 	nbTxFrames 	4240
scalar Forest.networkOne[3].nic.mac 	nbRxFrames 	19015
scalar Forest.networkOne[3].nic.mac 	nbDroppedFrames 	744
scalar Forest.networkOne[3].nic.mac 	nbMissedAcks 	0
scalar Forest.networkOne[3].nic.mac 	nbRecvdAcks 	0
scalar Forest.networkOne[3].nic.mac 	nbTxAcks 	0
scalar Forest.networkOne[3].nic.mac 	nbDuplicates 	0
scalar Forest.networkOne[3].nic.mac 	meanBackoff 	0.0027045619116582
scalar Forest.networkOne[3].nic.mac 	nbBackoffs 	11048
scalar Forest.networkOne[3].nic.mac 	backoffDurations 	29.879999999999
scalar Forest.networkOne[3].nic.phy 	nbFramesWithInterference 	18835
scalar Forest.networkOne[3].nic.phy 	nbFramesWithoutInterference 	175328
scalar Forest.networkOne[3].nic.phy 	nbFramesWithInterferencePartial 	8683
scalar Forest.networkOne[3].nic.phy 	nbFramesWithoutInterferencePartial 	1670
scalar Forest.networkOne[3].nic.phy 	nbFramesWithInterferenceDropped 	6063
scalar Forest.networkOne[3].nic.phy 	nbFramesWithoutInterferenceDropped 	23004
scalar Forest.networkOne[3].netwl 	nbDataPacketsForwarded 	2484
scalar Forest.networkOne[3].netwl 	nbDataPacketsReceived 	0
scalar Forest.networkOne[3].netwl 	nbDataPacketsSent 	2500
scalar Forest.networkOne[3].netwl 	nbDuplicatedFloodsReceived 	27886
scalar Forest.networkOne[3].netwl 	nbFloodsSent 	0
scalar Forest.networkOne[3].netwl 	nbPureUnicastSent 	2500
scalar Forest.networkOne[3].netwl 	nbRouteFloodsSent 	0
scalar Forest.networkOne[3].netwl 	nbRouteFloodsReceived 	5
scalar Forest.networkOne[3].netwl 	nbUnicastFloodForwarded 	2479
scalar Forest.networkOne[3].netwl 	nbPureUnicastForwarded 	0
scalar Forest.networkOne[3].netwl 	nbGetRouteFailures 	0
scalar Forest.networkOne[3].netwl 	nbRoutesRecorded 	1
scalar Forest.networkOne[3].netwl 	meanNbHops 	-nan
scalar Forest.networkOne[3].tranl 	nbAggrPktReceived 	0
scalar Forest.networkOne[3].tranl 	"nbAggrPktSentDown " 	0
scalar Forest.networkOne[3].appl 	"activity duration" 	-1
attr unit  s
scalar Forest.networkOne[3].appl 	firstPacketGeneration 	-1
attr unit  s
scalar Forest.networkOne[3].appl 	lastPacketReception 	-2
attr unit  s
scalar Forest.networkOne[3].appl 	nbPacketsSent 	2500
scalar Forest.networkOne[3].appl 	nbPacketsReceived 	0
statistic Forest.networkOne[3].appl 	latency
field count 0
field mean 0
field stddev -nan
field sum 0
field sqrsum 0
field min 0
field max 0
scalar Forest.networkOne[3].batteryStats 	nominal 	10800000
attr unit  mW-s
scalar Forest.networkOne[3].batteryStats 	total 	282547.75445223
attr unit  mW-s
scalar Forest.networkOne[3].batteryStats 	lifetime 	-1
attr unit  s
scalar Forest.networkOne[3].batteryStats 	"Mean power consumption" 	56.396019237136
attr unit  mW
scalar Forest.networkOne[3].batteryStats 	"num devices" 	1
scalar Forest.networkOne[3].batteryStats 	"physical layer" 	0
scalar Forest.networkOne[3].batteryStats 	"device total (mWs)" 	282547.75445042
scalar Forest.networkOne[3].batteryStats 	account 	0
scalar Forest.networkOne[3].batteryStats 	"energy (mWs)" 	0
scalar Forest.networkOne[3].batteryStats 	"time (s)" 	0
scalar Forest.networkOne[3].batteryStats 	"account 0" 	0
scalar Forest.networkOne[3].batteryStats 	account 	1
scalar Forest.networkOne[3].batteryStats 	"energy (mWs)" 	282208.05222962
scalar Forest.networkOne[3].batteryStats 	"time (s)" 	5003.6888693194
scalar Forest.networkOne[3].batteryStats 	"account 1" 	282208.05222962
scalar Forest.networkOne[3].batteryStats 	account 	2
scalar Forest.networkOne[3].batteryStats 	"energy (mWs)" 	247.87399679997
scalar Forest.networkOne[3].batteryStats 	"time (s)" 	4.748544
scalar Forest.networkOne[3].batteryStats 	"account 2" 	247.87399679997
scalar Forest.networkOne[3].batteryStats 	account 	3
scalar Forest.networkOne[3].batteryStats 	"energy (mWs)" 	91.828223999992
scalar Forest.networkOne[3].batteryStats 	"time (s)" 	1.62816
scalar Forest.networkOne[3].batteryStats 	"account 3" 	91.828223999992
scalar Forest.networkOne[3].batteryStats 	account 	4
scalar Forest.networkOne[3].batteryStats 	"energy (mWs)" 	0
scalar Forest.networkOne[3].batteryStats 	"time (s)" 	0
scalar Forest.networkOne[3].batteryStats 	"account 4" 	0
scalar Forest.networkOne[4].nic.mac 	nbTxFrames 	5335
scalar Forest.networkOne[4].nic.mac 	nbRxFrames 	19702
scalar Forest.networkOne[4].nic.mac 	nbDroppedFrames 	688
scalar Forest.networkOne[4].nic.mac 	nbMissedAcks 	0
scalar Forest.networkOne[4].nic.mac 	nbRecvdAcks 	0
scalar Forest.networkOne[4].nic.mac 	nbTxAcks 	0
scalar Forest.networkOne[4].nic.mac 	nbDuplicates 	0
scalar Forest.networkOne[4].nic.mac 	meanBackoff 	0.002543594470046
scalar Forest.networkOne[4].nic.mac 	nbBackoffs 	12152
scalar Forest.networkOne[4].nic.mac 	backoffDurations 	30.909759999999
scalar Forest.networkOne[4].nic.phy 	nbFramesWithInterference 	18266
scalar Forest.networkOne[4].nic.phy 	nbFramesWithoutInterference 	180871
scalar Forest.networkOne[4].nic.phy 	nbFramesWithInterferencePartial 	9758
scalar Forest.networkOne[4].nic.phy 	nbFramesWithoutInterferencePartial 	1636
scalar Forest.networkOne[4].nic.phy 	nbFramesWithInterferenceDropped 	5783
scalar Forest.networkOne[4].nic.phy 	nbFramesWithoutInterferenceDropped 	22605
scalar Forest.networkOne[4].netwl 	nbDataPacketsForwarded 	3523
scalar Forest.networkOne[4].netwl 	nbDataPacketsReceived 	0
scalar Forest.networkOne[4].netwl 	nbDataPacketsSent 	2500
scalar Forest.networkOne[4].netwl 	nbDuplicatedFloodsReceived 	27468
scalar Forest.networkOne[4].netwl 	nbFloodsSent 	0
scalar Forest.networkOne[4].netwl 	nbPureUnicastSent 	2500
scalar Forest.networkOne[4].netwl 	nbRouteFloodsSent 	0
scalar Forest.networkOne[4].netwl 	nbRouteFloodsReceived 	5
scalar Forest.networkOne[4].netwl 	nbUnicastFloodForwarded 	2479
scalar Forest.networkOne[4].netwl 	nbPureUnicastForwarded 	1039
scalar Forest.networkOne[4].netwl 	nbGetRouteFailures 	0
scalar Forest.networkOne[4].netwl 	nbRoutesRecorded 	1
scalar Forest.networkOne[4].netwl 	meanNbHops 	-nan
scalar Forest.networkOne[4].tranl 	nbAggrPktReceived 	0
scalar Forest.networkOne[4].tranl 	"nbAggrPktSentDown " 	0
scalar Forest.networkOne[4].appl 	"activity duration" 	-1
attr unit  s
scalar Forest.networkOne[4].appl 	firstPacketGeneration 	-1
attr unit  s
scalar Forest.networkOne[4].appl 	lastPacketReception 	-2
attr unit  s
scalar Forest.networkOne[4].appl 	nbPacketsSent 	2500
scalar Forest.networkOne[4].appl 	nbPacketsReceived 	0
statistic Forest.networkOne[4].appl 	latency
field count 0
field mean 0
field stddev -nan
field sum 0
field sqrsum 0
field min 0
field max 0
scalar Forest.networkOne[4].batteryStats 	nominal 	10800000
attr unit  mW-s
scalar Forest.networkOne[4].batteryStats 	total 	282542.60384155
attr unit  mW-s
scalar Forest.networkOne[4].batteryStats 	lifetime 	-1
attr unit  s
scalar Forest.networkOne[4].batteryStats 	"Mean power consumption" 	56.394991184586
attr unit  mW
scalar Forest.networkOne[4].batteryStats 	"num devices" 	1
scalar Forest.networkOne[4].batteryStats 	"physical layer" 	0
scalar Forest.networkOne[4].batteryStats 	"device total (mWs)" 	282542.60383922
scalar Forest.networkOne[4].batteryStats 	account 	0
scalar Forest.networkOne[4].batteryStats 	"energy (mWs)" 	0
scalar Forest.networkOne[4].batteryStats 	"time (s)" 	0
scalar Forest.networkOne[4].batteryStats 	"account 0" 	0
scalar Forest.networkOne[4].batteryStats 	account 	1
scalar Forest.networkOne[4].batteryStats 	"energy (mWs)" 	282115.17180722
scalar Forest.networkOne[4].batteryStats 	"time (s)" 	5002.0420533194
scalar Forest.networkOne[4].batteryStats 	"account 1" 	282115.17180722
scalar Forest.networkOne[4].batteryStats 	account 	2
scalar Forest.networkOne[4].batteryStats 	"energy (mWs)" 	311.88873599999
scalar Forest.networkOne[4].batteryStats 	"time (s)" 	5.97488
scalar Forest.networkOne[4].batteryStats 	"account 2" 	311.88873599999
scalar Forest.networkOne[4].batteryStats 	account 	3
scalar Forest.networkOne[4].batteryStats 	"energy (mWs)" 	115.54329599999
scalar Forest.networkOne[4].batteryStats 	"time (s)" 	2.04864
scalar Forest.networkOne[4].batteryStats 	"account 3" 	115.54329599999
scalar Forest.networkOne[4].batteryStats 	account 	4
scalar Forest.networkOne[4].batteryStats 	"energy (mWs)" 	0
scalar Forest.networkOne[4].batteryStats 	"time (s)" 	0
scalar Forest.networkOne[4].batteryStats 	"account 4" 	0
scalar Forest.networkOne[5].nic.mac 	nbTxFrames 	4262
scalar Forest.networkOne[5].nic.mac 	nbRxFrames 	17826
scalar Forest.networkOne[5].nic.mac 	nbDroppedFrames 	722
scalar Forest.networkOne[5].nic.mac 	nbMissedAcks 	0
scalar Forest.networkOne[5].nic.mac 	nbRecvdAcks 	0
scalar Forest.networkOne[5].nic.mac 	nbTxAcks 	0
scalar Forest.networkOne[5].nic.mac 	nbDuplicates 	0
scalar Forest.networkOne[5].nic.mac 	meanBackoff 	0.0026964917973679
scalar Forest.networkOne[5].nic.mac 	nbBackoffs 	11094
scalar Forest.networkOne[5].nic.mac 	backoffDurations 	29.914879999999
scalar Forest.networkOne[5].nic.phy 	nbFramesWithInterference 	17311
scalar Forest.networkOne[5].nic.phy 	nbFramesWithoutInterference 	180196
scalar Forest.networkOne[5].nic.phy 	nbFramesWithInterferencePartial 	10275
scalar Forest.networkOne[5].nic.phy 	nbFramesWithoutInterferencePartial 	1574
scalar Forest.networkOne[5].nic.phy 	nbFramesWithInterferenceDropped 	5979
scalar Forest.networkOne[5].nic.phy 	nbFramesWithoutInterferenceDropped 	22241
scalar Forest.networkOne[5].netwl 	nbDataPacketsForwarded 	2484
scalar Forest.networkOne[5].netwl 	nbDataPacketsReceived 	0
scalar Forest.networkOne[5].netwl 	nbDataPacketsSent 	2500
scalar Forest.networkOne[5].netwl 	nbDuplicatedFloodsReceived 	26555
scalar Forest.networkOne[5].netwl 	nbFloodsSent 	0
scalar Forest.networkOne[5].netwl 	nbPureUnicastSent 	2500
scalar Forest.networkOne[5].netwl 	nbRouteFloodsSent 	0
scalar Forest.networkOne[5].netwl 	nbRouteFloodsReceived 	5
scalar Forest.networkOne[5].netwl 	nbUnicastFloodForwarded 	2479
scalar Forest.networkOne[5].netwl 	nbPureUnicastForwarded 	0
scalar Forest.networkOne[5].netwl 	nbGetRouteFailures 	0
scalar Forest.networkOne[5].netwl 	nbRoutesRecorded 	1
scalar Forest.networkOne[5].netwl 	meanNbHops 	-nan
scalar Forest.networkOne[5].tranl 	nbAggrPktReceived 	0
scalar Forest.networkOne[5].tranl 	"nbAggrPktSentDown " 	0
scalar Forest.networkOne[5].appl 	"activity duration" 	-1
attr unit  s
scalar Forest.networkOne[5].appl 	firstPacketGeneration 	-1
attr unit  s
scalar Forest.networkOne[5].appl 	lastPacketReception 	-2
attr unit  s
scalar Forest.networkOne[5].appl 	nbPacketsSent 	2500
scalar Forest.networkOne[5].appl 	nbPacketsReceived 	0
statistic Forest.networkOne[5].appl 	latency
field count 0
field mean 0
field stddev -nan
field sum 0
field sqrsum 0
field min 0
field max 0
scalar Forest.networkOne[5].batteryStats 	nominal 	10800000
attr unit  mW-s
scalar Forest.networkOne[5].batteryStats 	total 	282547.65096417
attr unit  mW-s
scalar Forest.networkOne[5].batteryStats 	lifetime 	-1
attr unit  s
scalar Forest.networkOne[5].batteryStats 	"Mean power consumption" 	56.395998581106
attr unit  mW
scalar Forest.networkOne[5].batteryStats 	"num devices" 	1
scalar Forest.networkOne[5].batteryStats 	"physical layer" 	0
scalar Forest.networkOne[5].batteryStats 	"device total (mWs)" 	282547.65096242
scalar Forest.networkOne[5].batteryStats 	account 	0
scalar Forest.networkOne[5].batteryStats 	"energy (mWs)" 	0
scalar Forest.networkOne[5].batteryStats 	"time (s)" 	0
scalar Forest.networkOne[5].batteryStats 	"account 0" 	0
scalar Forest.networkOne[5].batteryStats 	account 	1
scalar Forest.networkOne[5].batteryStats 	"energy (mWs)" 	282206.18606642
scalar Forest.networkOne[5].batteryStats 	"time (s)" 	5003.6557813194
scalar Forest.networkOne[5].batteryStats 	"account 1" 	282206.18606642
scalar Forest.networkOne[5].batteryStats 	account 	2
scalar Forest.networkOne[5].batteryStats 	"energy (mWs)" 	249.16020479997
scalar Forest.networkOne[5].batteryStats 	"time (s)" 	4.773184
scalar Forest.networkOne[5].batteryStats 	"account 2" 	249.16020479997
scalar Forest.networkOne[5].batteryStats 	account 	3
scalar Forest.networkOne[5].batteryStats 	"energy (mWs)" 	92.304691199991
scalar Forest.networkOne[5].batteryStats 	"time (s)" 	1.636608
scalar Forest.networkOne[5].batteryStats 	"account 3" 	92.304691199991
scalar Forest.networkOne[5].batteryStats 	account 	4
scalar Forest.networkOne[5].batteryStats 	"energy (mWs)" 	0
scalar Forest.networkOne[5].batteryStats 	"time (s)" 	0
scalar Forest.networkOne[5].batteryStats 	"account 4" 	0
scalar Forest.networkOne[6].nic.mac 	nbTxFrames 	4297
scalar Forest.networkOne[6].nic.mac 	nbRxFrames 	16574
scalar Forest.networkOne[6].nic.mac 	nbDroppedFrames 	687
scalar Forest.networkOne[6].nic.mac 	nbMissedAcks 	0
scalar Forest.networkOne[6].nic.mac 	nbRecvdAcks 	0
scalar Forest.networkOne[6].nic.mac 	nbTxAcks 	0
scalar Forest.networkOne[6].nic.mac 	nbDuplicates 	0
scalar Forest.networkOne[6].nic.mac 	meanBackoff 	0.0026999981921721
scalar Forest.networkOne[6].nic.mac 	nbBackoffs 	11063
scalar Forest.networkOne[6].nic.mac 	backoffDurations 	29.870079999999
scalar Forest.networkOne[6].nic.phy 	nbFramesWithInterference 	16323
scalar Forest.networkOne[6].nic.phy 	nbFramesWithoutInterference 	169704
scalar Forest.networkOne[6].nic.phy 	nbFramesWithInterferencePartial 	10311
scalar Forest.networkOne[6].nic.phy 	nbFramesWithoutInterferencePartial 	1647
scalar Forest.networkOne[6].nic.phy 	nbFramesWithInterferenceDropped 	5805
scalar Forest.networkOne[6].nic.phy 	nbFramesWithoutInterferenceDropped 	22626
scalar Forest.networkOne[6].netwl 	nbDataPacketsForwarded 	2484
scalar Forest.networkOne[6].netwl 	nbDataPacketsReceived 	0
scalar Forest.networkOne[6].netwl 	nbDataPacketsSent 	2500
scalar Forest.networkOne[6].netwl 	nbDuplicatedFloodsReceived 	25058
scalar Forest.networkOne[6].netwl 	nbFloodsSent 	0
scalar Forest.networkOne[6].netwl 	nbPureUnicastSent 	2500
scalar Forest.networkOne[6].netwl 	nbRouteFloodsSent 	0
scalar Forest.networkOne[6].netwl 	nbRouteFloodsReceived 	5
scalar Forest.networkOne[6].netwl 	nbUnicastFloodForwarded 	2479
scalar Forest.networkOne[6].netwl 	nbPureUnicastForwarded 	0
scalar Forest.networkOne[6].netwl 	nbGetRouteFailures 	0
scalar Forest.networkOne[6].netwl 	nbRoutesRecorded 	1
scalar Forest.networkOne[6].netwl 	meanNbHops 	-nan
scalar Forest.networkOne[6].tranl 	nbAggrPktReceived 	0
scalar Forest.networkOne[6].tranl 	"nbAggrPktSentDown " 	0
scalar Forest.networkOne[6].appl 	"activity duration" 	-1
attr unit  s
scalar Forest.networkOne[6].appl 	firstPacketGeneration 	-1
attr unit  s
scalar Forest.networkOne[6].appl 	lastPacketReception 	-2
attr unit  s
scalar Forest.networkOne[6].appl 	nbPacketsSent 	2500
scalar Forest.networkOne[6].appl 	nbPacketsReceived 	0
statistic Forest.networkOne[6].appl 	latency
field count 0
field mean 0
field stddev -nan
field sum 0
field sqrsum 0
field min 0
field max 0
scalar Forest.networkOne[6].batteryStats 	nominal 	10800000
attr unit  mW-s
scalar Forest.networkOne[6].batteryStats 	total 	282547.48632417
attr unit  mW-s
scalar Forest.networkOne[6].batteryStats 	lifetime 	-1
attr unit  s
scalar Forest.networkOne[6].batteryStats 	"Mean power consumption" 	56.39596571926
attr unit  mW
scalar Forest.networkOne[6].batteryStats 	"num devices" 	1
scalar Forest.networkOne[6].batteryStats 	"physical layer" 	0
scalar Forest.networkOne[6].batteryStats 	"device total (mWs)" 	282547.48632242
scalar Forest.networkOne[6].batteryStats 	account 	0
scalar Forest.networkOne[6].batteryStats 	"energy (mWs)" 	0
scalar Forest.networkOne[6].batteryStats 	"time (s)" 	0
scalar Forest.networkOne[6].batteryStats 	"account 0" 	0
scalar Forest.networkOne[6].batteryStats 	account 	1
scalar Forest.networkOne[6].batteryStats 	"energy (mWs)" 	282203.21717042
scalar Forest.networkOne[6].batteryStats 	"time (s)" 	5003.6031413194
scalar Forest.networkOne[6].batteryStats 	"account 1" 	282203.21717042
scalar Forest.networkOne[6].batteryStats 	account 	2
scalar Forest.networkOne[6].batteryStats 	"energy (mWs)" 	251.20644479997
scalar Forest.networkOne[6].batteryStats 	"time (s)" 	4.812384
scalar Forest.networkOne[6].batteryStats 	"account 2" 	251.20644479997
scalar Forest.networkOne[6].batteryStats 	account 	3
scalar Forest.networkOne[6].batteryStats 	"energy (mWs)" 	93.062707199991
scalar Forest.networkOne[6].batteryStats 	"time (s)" 	1.650048
scalar Forest.networkOne[6].batteryStats 	"account 3" 	93.062707199991
scalar Forest.networkOne[6].batteryStats 	account 	4
scalar Forest.networkOne[6].batteryStats 	"energy (mWs)" 	0
scalar Forest.networkOne[6].batteryStats 	"time (s)" 	0
scalar Forest.networkOne[6].batteryStats 	"account 4" 	0
scalar Forest.networkOne[7].nic.mac 	nbTxFrames 	4316
scalar Forest.networkOne[7].nic.mac 	nbRxFrames 	15486
scalar Forest.networkOne[7].nic.mac 	nbDroppedFrames 	668
scalar Forest.networkOne[7].nic.mac 	nbMissedAcks 	0
scalar Forest.networkOne[7].nic.mac 	nbRecvdAcks 	0
scalar Forest.networkOne[7].nic.mac 	nbTxAcks 	0
scalar Forest.networkOne[7].nic.mac 	nbDuplicates 	0
scalar Forest.networkOne[7].nic.mac 	meanBackoff 	0.0027076273653566
scalar Forest.networkOne[7].nic.mac 	nbBackoffs 	10992
scalar Forest.networkOne[7].nic.mac 	backoffDurations 	29.762239999999
scalar Forest.networkOne[7].nic.phy 	nbFramesWithInterference 	15168
scalar Forest.networkOne[7].nic.phy 	nbFramesWithoutInterference 	152306
scalar Forest.networkOne[7].nic.phy 	nbFramesWithInterferencePartial 	9450
scalar Forest.networkOne[7].nic.phy 	nbFramesWithoutInterferencePartial 	1673
scalar Forest.networkOne[7].nic.phy 	nbFramesWithInterferenceDropped 	5657
scalar Forest.networkOne[7].nic.phy 	nbFramesWithoutInterferenceDropped 	23158
scalar Forest.networkOne[7].netwl 	nbDataPacketsForwarded 	2484
scalar Forest.networkOne[7].netwl 	nbDataPacketsReceived 	0
scalar Forest.networkOne[7].netwl 	nbDataPacketsSent 	2500
scalar Forest.networkOne[7].netwl 	nbDuplicatedFloodsReceived 	23471
scalar Forest.networkOne[7].netwl 	nbFloodsSent 	0
scalar Forest.networkOne[7].netwl 	nbPureUnicastSent 	2500
scalar Forest.networkOne[7].netwl 	nbRouteFloodsSent 	0
scalar Forest.networkOne[7].netwl 	nbRouteFloodsReceived 	5
scalar Forest.networkOne[7].netwl 	nbUnicastFloodForwarded 	2479
scalar Forest.networkOne[7].netwl 	nbPureUnicastForwarded 	0
scalar Forest.networkOne[7].netwl 	nbGetRouteFailures 	0
scalar Forest.networkOne[7].netwl 	nbRoutesRecorded 	1
scalar Forest.networkOne[7].netwl 	meanNbHops 	-nan
scalar Forest.networkOne[7].tranl 	nbAggrPktReceived 	0
scalar Forest.networkOne[7].tranl 	"nbAggrPktSentDown " 	0
scalar Forest.networkOne[7].appl 	"activity duration" 	-1
attr unit  s
scalar Forest.networkOne[7].appl 	firstPacketGeneration 	-1
attr unit  s
scalar Forest.networkOne[7].appl 	lastPacketReception 	-2
attr unit  s
scalar Forest.networkOne[7].appl 	nbPacketsSent 	2500
scalar Forest.networkOne[7].appl 	nbPacketsReceived 	0
statistic Forest.networkOne[7].appl 	latency
field count 0
field mean 0
field stddev -nan
field sum 0
field sqrsum 0
field min 0
field max 0
scalar Forest.networkOne[7].batteryStats 	nominal 	10800000
attr unit  mW-s
scalar Forest.networkOne[7].batteryStats 	total 	282547.39667944
attr unit  mW-s
scalar Forest.networkOne[7].batteryStats 	lifetime 	-1
attr unit  s
scalar Forest.networkOne[7].batteryStats 	"Mean power consumption" 	56.395947826336
attr unit  mW
scalar Forest.networkOne[7].batteryStats 	"num devices" 	1
scalar Forest.networkOne[7].batteryStats 	"physical layer" 	0
scalar Forest.networkOne[7].batteryStats 	"device total (mWs)" 	282547.39667762
scalar Forest.networkOne[7].batteryStats 	account 	0
scalar Forest.networkOne[7].batteryStats 	"energy (mWs)" 	0
scalar Forest.networkOne[7].batteryStats 	"time (s)" 	0
scalar Forest.networkOne[7].batteryStats 	"account 0" 	0
scalar Forest.networkOne[7].batteryStats 	account 	1
scalar Forest.networkOne[7].batteryStats 	"energy (mWs)" 	282201.60187442
scalar Forest.networkOne[7].batteryStats 	"time (s)" 	5003.5745013194
scalar Forest.networkOne[7].batteryStats 	"account 1" 	282201.60187442
scalar Forest.networkOne[7].batteryStats 	account 	2
scalar Forest.networkOne[7].batteryStats 	"energy (mWs)" 	252.32060159997
scalar Forest.networkOne[7].batteryStats 	"time (s)" 	4.833728
scalar Forest.networkOne[7].batteryStats 	"account 2" 	252.32060159997
scalar Forest.networkOne[7].batteryStats 	account 	3
scalar Forest.networkOne[7].batteryStats 	"energy (mWs)" 	93.474201599991
scalar Forest.networkOne[7].batteryStats 	"time (s)" 	1.657344
scalar Forest.networkOne[7].batteryStats 	"account 3" 	93.474201599991
scalar Forest.networkOne[7].batteryStats 	account 	4
scalar Forest.networkOne[7].batteryStats 	"energy (mWs)" 	0
scalar Forest.networkOne[7].batteryStats 	"time (s)" 	0
scalar Forest.networkOne[7].batteryStats 	"account 4" 	0
scalar Forest.networkOne[8].nic.mac 	nbTxFrames 	4353
scalar Forest.networkOne[8].nic.mac 	nbRxFrames 	14082
scalar Forest.networkOne[8].nic.mac 	nbDroppedFrames 	631
scalar Forest.networkOne[8].nic.mac 	nbMissedAcks 	0
scalar Forest.networkOne[8].nic.mac 	nbRecvdAcks 	0
scalar Forest.networkOne[8].nic.mac 	nbTxAcks 	0
scalar Forest.networkOne[8].nic.mac 	nbDuplicates 	0
scalar Forest.networkOne[8].nic.mac 	meanBackoff 	0.0026737259899863
scalar Forest.networkOne[8].nic.mac 	nbBackoffs 	10985
scalar Forest.networkOne[8].nic.mac 	backoffDurations 	29.370879999999
scalar Forest.networkOne[8].nic.phy 	nbFramesWithInterference 	13857
scalar Forest.networkOne[8].nic.phy 	nbFramesWithoutInterference 	130970
scalar Forest.networkOne[8].nic.phy 	nbFramesWithInterferencePartial 	8091
scalar Forest.networkOne[8].nic.phy 	nbFramesWithoutInterferencePartial 	1741
scalar Forest.networkOne[8].nic.phy 	nbFramesWithInterferenceDropped 	5794
scalar Forest.networkOne[8].nic.phy 	nbFramesWithoutInterferenceDropped 	23301
scalar Forest.networkOne[8].netwl 	nbDataPacketsForwarded 	2484
scalar Forest.networkOne[8].netwl 	nbDataPacketsReceived 	0
scalar Forest.networkOne[8].netwl 	nbDataPacketsSent 	2500
scalar Forest.networkOne[8].netwl 	nbDuplicatedFloodsReceived 	21466
scalar Forest.networkOne[8].netwl 	nbFloodsSent 	0
scalar Forest.networkOne[8].netwl 	nbPureUnicastSent 	2500
scalar Forest.networkOne[8].netwl 	nbRouteFloodsSent 	0
scalar Forest.networkOne[8].netwl 	nbRouteFloodsReceived 	5
scalar Forest.networkOne[8].netwl 	nbUnicastFloodForwarded 	2479
scalar Forest.networkOne[8].netwl 	nbPureUnicastForwarded 	0
scalar Forest.networkOne[8].netwl 	nbGetRouteFailures 	0
scalar Forest.networkOne[8].netwl 	nbRoutesRecorded 	1
scalar Forest.networkOne[8].netwl 	meanNbHops 	-nan
scalar Forest.networkOne[8].tranl 	nbAggrPktReceived 	0
scalar Forest.networkOne[8].tranl 	"nbAggrPktSentDown " 	0
scalar Forest.networkOne[8].appl 	"activity duration" 	-1
attr unit  s
scalar Forest.networkOne[8].appl 	firstPacketGeneration 	-1
attr unit  s
scalar Forest.networkOne[8].appl 	lastPacketReception 	-2
attr unit  s
scalar Forest.networkOne[8].appl 	nbPacketsSent 	2500
scalar Forest.networkOne[8].appl 	nbPacketsReceived 	0
statistic Forest.networkOne[8].appl 	latency
field count 0
field mean 0
field stddev -nan
field sum 0
field sqrsum 0
field min 0
field max 0
scalar Forest.networkOne[8].batteryStats 	nominal 	10800000
attr unit  mW-s
scalar Forest.networkOne[8].batteryStats 	total 	282547.22290029
attr unit  mW-s
scalar Forest.networkOne[8].batteryStats 	lifetime 	-1
attr unit  s
scalar Forest.networkOne[8].batteryStats 	"Mean power consumption" 	56.395913140332
attr unit  mW
scalar Forest.networkOne[8].batteryStats 	"num devices" 	1
scalar Forest.networkOne[8].batteryStats 	"physical layer" 	0
scalar Forest.networkOne[8].batteryStats 	"device total (mWs)" 	282547.22289842
scalar Forest.networkOne[8].batteryStats 	account 	0
scalar Forest.networkOne[8].batteryStats 	"energy (mWs)" 	0
scalar Forest.networkOne[8].batteryStats 	"time (s)" 	0
scalar Forest.networkOne[8].batteryStats 	"account 0" 	0
scalar Forest.networkOne[8].batteryStats 	account 	1
scalar Forest.networkOne[8].batteryStats 	"energy (mWs)" 	282198.46693682
scalar Forest.networkOne[8].batteryStats 	"time (s)" 	5003.5189173194
scalar Forest.networkOne[8].batteryStats 	"account 1" 	282198.46693682
scalar Forest.networkOne[8].batteryStats 	account 	2
scalar Forest.networkOne[8].batteryStats 	"energy (mWs)" 	254.48042879997
scalar Forest.networkOne[8].batteryStats 	"time (s)" 	4.875104
scalar Forest.networkOne[8].batteryStats 	"account 2" 	254.48042879997
scalar Forest.networkOne[8].batteryStats 	account 	3
scalar Forest.networkOne[8].batteryStats 	"energy (mWs)" 	94.275532799991
scalar Forest.networkOne[8].batteryStats 	"time (s)" 	1.671552
scalar Forest.networkOne[8].batteryStats 	"account 3" 	94.275532799991
scalar Forest.networkOne[8].batteryStats 	account 	4
scalar Forest.networkOne[8].batteryStats 	"energy (mWs)" 	0
scalar Forest.networkOne[8].batteryStats 	"time (s)" 	0
scalar Forest.networkOne[8].batteryStats 	"account 4" 	0
scalar Forest.networkOne[9].nic.mac 	nbTxFrames 	4226
scalar Forest.networkOne[9].nic.mac 	nbRxFrames 	17195
scalar Forest.networkOne[9].nic.mac 	nbDroppedFrames 	759
scalar Forest.networkOne[9].nic.mac 	nbMissedAcks 	0
scalar Forest.networkOne[9].nic.mac 	nbRecvdAcks 	0
scalar Forest.networkOne[9].nic.mac 	nbTxAcks 	0
scalar Forest.networkOne[9].nic.mac 	nbDuplicates 	0
scalar Forest.networkOne[9].nic.mac 	meanBackoff 	0.002706443135478
scalar Forest.networkOne[9].nic.mac 	nbBackoffs 	11035
scalar Forest.networkOne[9].nic.mac 	backoffDurations 	29.865599999999
scalar Forest.networkOne[9].nic.phy 	nbFramesWithInterference 	17447
scalar Forest.networkOne[9].nic.phy 	nbFramesWithoutInterference 	140502
scalar Forest.networkOne[9].nic.phy 	nbFramesWithInterferencePartial 	7103
scalar Forest.networkOne[9].nic.phy 	nbFramesWithoutInterferencePartial 	1750
scalar Forest.networkOne[9].nic.phy 	nbFramesWithInterferenceDropped 	5880
scalar Forest.networkOne[9].nic.phy 	nbFramesWithoutInterferenceDropped 	23638
scalar Forest.networkOne[9].netwl 	nbDataPacketsForwarded 	2485
scalar Forest.networkOne[9].netwl 	nbDataPacketsReceived 	0
scalar Forest.networkOne[9].netwl 	nbDataPacketsSent 	2500
scalar Forest.networkOne[9].netwl 	nbDuplicatedFloodsReceived 	25194
scalar Forest.networkOne[9].netwl 	nbFloodsSent 	0
scalar Forest.networkOne[9].netwl 	nbPureUnicastSent 	2500
scalar Forest.networkOne[9].netwl 	nbRouteFloodsSent 	0
scalar Forest.networkOne[9].netwl 	nbRouteFloodsReceived 	5
scalar Forest.networkOne[9].netwl 	nbUnicastFloodForwarded 	2480
scalar Forest.networkOne[9].netwl 	nbPureUnicastForwarded 	0
scalar Forest.networkOne[9].netwl 	nbGetRouteFailures 	0
scalar Forest.networkOne[9].netwl 	nbRoutesRecorded 	1
scalar Forest.networkOne[9].netwl 	meanNbHops 	-nan
scalar Forest.networkOne[9].tranl 	nbAggrPktReceived 	0
scalar Forest.networkOne[9].tranl 	"nbAggrPktSentDown " 	0
scalar Forest.networkOne[9].appl 	"activity duration" 	-1
attr unit  s
scalar Forest.networkOne[9].appl 	firstPacketGeneration 	-1
attr unit  s
scalar Forest.networkOne[9].appl 	lastPacketReception 	-2
attr unit  s
scalar Forest.networkOne[9].appl 	nbPacketsSent 	2500
scalar Forest.networkOne[9].appl 	nbPacketsReceived 	0
statistic Forest.networkOne[9].appl 	latency
field count 0
field mean 0
field stddev -nan
field sum 0
field sqrsum 0
field min 0
field max 0
scalar Forest.networkOne[9].batteryStats 	nominal 	10800000
attr unit  mW-s
scalar Forest.networkOne[9].batteryStats 	total 	282547.82057704
attr unit  mW-s
scalar Forest.networkOne[9].batteryStats 	lifetime 	-1
attr unit  s
scalar Forest.networkOne[9].batteryStats 	"Mean power consumption" 	56.396032435527
attr unit  mW
scalar Forest.networkOne[9].batteryStats 	"num devices" 	1
scalar Forest.networkOne[9].batteryStats 	"physical layer" 	0
scalar Forest.networkOne[9].batteryStats 	"device total (mWs)" 	282547.82057522
scalar Forest.networkOne[9].batteryStats 	account 	0
scalar Forest.networkOne[9].batteryStats 	"energy (mWs)" 	0
scalar Forest.networkOne[9].batteryStats 	"time (s)" 	0
scalar Forest.networkOne[9].batteryStats 	"account 0" 	0
scalar Forest.networkOne[9].batteryStats 	account 	1
scalar Forest.networkOne[9].batteryStats 	"energy (mWs)" 	282209.24339762
scalar Forest.networkOne[9].batteryStats 	"time (s)" 	5003.7099893194
scalar Forest.networkOne[9].batteryStats 	"account 1" 	282209.24339762
scalar Forest.networkOne[9].batteryStats 	account 	2
scalar Forest.networkOne[9].batteryStats 	"energy (mWs)" 	247.05215999997
scalar Forest.networkOne[9].batteryStats 	"time (s)" 	4.7328
scalar Forest.networkOne[9].batteryStats 	"account 2" 	247.05215999997
scalar Forest.networkOne[9].batteryStats 	account 	3
scalar Forest.networkOne[9].batteryStats 	"energy (mWs)" 	91.525017599992
scalar Forest.networkOne[9].batteryStats 	"time (s)" 	1.622784
scalar Forest.networkOne[9].batteryStats 	"account 3" 	91.525017599992
scalar Forest.networkOne[9].batteryStats 	account 	4
scalar Forest.networkOne[9].batteryStats 	"energy (mWs)" 	0
scalar Forest.networkOne[9].batteryStats 	"time (s)" 	0
scalar Forest.networkOne[9].batteryStats 	"account 4" 	0
scalar Forest.networkOne[10].nic.mac 	nbTxFrames 	6744
scalar Forest.networkOne[10].nic.mac 	nbRxFrames 	19042
scalar Forest.networkOne[10].nic.mac 	nbDroppedFrames 	740
scalar Forest.networkOne[10].nic.mac 	nbMissedAcks 	0
scalar Forest.networkOne[10].nic.mac 	nbRecvdAcks 	0
scalar Forest.networkOne[10].nic.mac 	nbTxAcks 	0
scalar Forest.networkOne[10].nic.mac 	nbDuplicates 	0
scalar Forest.networkOne[10].nic.mac 	meanBackoff 	0.002415207780725
scalar Forest.networkOne[10].nic.mac 	nbBackoffs 	13572
scalar Forest.networkOne[10].nic.mac 	backoffDurations 	32.779199999999
scalar Forest.networkOne[10].nic.phy 	nbFramesWithInterference 	19102
scalar Forest.networkOne[10].nic.phy 	nbFramesWithoutInterference 	164633
scalar Forest.networkOne[10].nic.phy 	nbFramesWithInterferencePartial 	7991
scalar Forest.networkOne[10].nic.phy 	nbFramesWithoutInterferencePartial 	1716
scalar Forest.networkOne[10].nic.phy 	nbFramesWithInterferenceDropped 	5666
scalar Forest.networkOne[10].nic.phy 	nbFramesWithoutInterferenceDropped 	23334
scalar Forest.networkOne[10].netwl 	nbDataPacketsForwarded 	2484
scalar Forest.networkOne[10].netwl 	nbDataPacketsReceived 	0
scalar Forest.networkOne[10].netwl 	nbDataPacketsSent 	5000
scalar Forest.networkOne[10].netwl 	nbDuplicatedFloodsReceived 	27864
scalar Forest.networkOne[10].netwl 	nbFloodsSent 	0
scalar Forest.networkOne[10].netwl 	nbPureUnicastSent 	5000
scalar Forest.networkOne[10].netwl 	nbRouteFloodsSent 	0
scalar Forest.networkOne[10].netwl 	nbRouteFloodsReceived 	5
scalar Forest.networkOne[10].netwl 	nbUnicastFloodForwarded 	2479
scalar Forest.networkOne[10].netwl 	nbPureUnicastForwarded 	0
scalar Forest.networkOne[10].netwl 	nbGetRouteFailures 	0
scalar Forest.networkOne[10].netwl 	nbRoutesRecorded 	1
scalar Forest.networkOne[10].netwl 	meanNbHops 	-nan
scalar Forest.networkOne[10].tranl 	nbAggrPktReceived 	0
scalar Forest.networkOne[10].tranl 	"nbAggrPktSentDown " 	0
scalar Forest.networkOne[10].appl 	"activity duration" 	-1
attr unit  s
scalar Forest.networkOne[10].appl 	firstPacketGeneration 	-1
attr unit  s
scalar Forest.networkOne[10].appl 	lastPacketReception 	-2
attr unit  s
scalar Forest.networkOne[10].appl 	nbPacketsSent 	5000
scalar Forest.networkOne[10].appl 	nbPacketsReceived 	0
statistic Forest.networkOne[10].appl 	latency
field count 0
field mean 0
field stddev -nan
field sum 0
field sqrsum 0
field min 0
field max 0
scalar Forest.networkOne[10].batteryStats 	nominal 	10800000
attr unit  mW-s
scalar Forest.networkOne[10].batteryStats 	total 	282535.97563734
attr unit  mW-s
scalar Forest.networkOne[10].batteryStats 	lifetime 	-1
attr unit  s
scalar Forest.networkOne[10].batteryStats 	"Mean power consumption" 	56.393668207051
attr unit  mW
scalar Forest.networkOne[10].batteryStats 	"num devices" 	1
scalar Forest.networkOne[10].batteryStats 	"physical layer" 	0
scalar Forest.networkOne[10].batteryStats 	"device total (mWs)" 	282535.97563439
scalar Forest.networkOne[10].batteryStats 	account 	0
scalar Forest.networkOne[10].batteryStats 	"energy (mWs)" 	0
scalar Forest.networkOne[10].batteryStats 	"time (s)" 	0
scalar Forest.networkOne[10].batteryStats 	"account 0" 	0
scalar Forest.networkOne[10].batteryStats 	account 	1
scalar Forest.networkOne[10].batteryStats 	"energy (mWs)" 	281995.64892719
scalar Forest.networkOne[10].batteryStats 	"time (s)" 	4999.9228533194
scalar Forest.networkOne[10].batteryStats 	"account 1" 	281995.64892719
scalar Forest.networkOne[10].batteryStats 	account 	2
scalar Forest.networkOne[10].batteryStats 	"energy (mWs)" 	394.26785280001
scalar Forest.networkOne[10].batteryStats 	"time (s)" 	7.553024
scalar Forest.networkOne[10].batteryStats 	"account 2" 	394.26785280001
scalar Forest.networkOne[10].batteryStats 	account 	3
scalar Forest.networkOne[10].batteryStats 	"energy (mWs)" 	146.05885440001
scalar Forest.networkOne[10].batteryStats 	"time (s)" 	2.589696
scalar Forest.networkOne[10].batteryStats 	"account 3" 	146.05885440001
scalar Forest.networkOne[10].batteryStats 	account 	4
scalar Forest.networkOne[10].batteryStats 	"energy (mWs)" 	0
scalar Forest.networkOne[10].batteryStats 	"time (s)" 	0
scalar Forest.networkOne[10].batteryStats 	"account 4" 	0
scalar Forest.networkOne[11].nic.mac 	nbTxFrames 	4263
scalar Forest.networkOne[11].nic.mac 	nbRxFrames 	20240
scalar Forest.networkOne[11].nic.mac 	nbDroppedFrames 	721
scalar Forest.networkOne[11].nic.mac 	nbMissedAcks 	0
scalar Forest.networkOne[11].nic.mac 	nbRecvdAcks 	0
scalar Forest.networkOne[11].nic.mac 	nbTxAcks 	0
scalar Forest.networkOne[11].nic.mac 	nbDuplicates 	0
scalar Forest.networkOne[11].nic.mac 	meanBackoff 	0.002708860207235
scalar Forest.networkOne[11].nic.mac 	nbBackoffs 	11002
scalar Forest.networkOne[11].nic.mac 	backoffDurations 	29.802879999999
scalar Forest.networkOne[11].nic.phy 	nbFramesWithInterference 	19781
scalar Forest.networkOne[11].nic.phy 	nbFramesWithoutInterference 	190732
scalar Forest.networkOne[11].nic.phy 	nbFramesWithInterferencePartial 	9094
scalar Forest.networkOne[11].nic.phy 	nbFramesWithoutInterferencePartial 	1588
scalar Forest.networkOne[11].nic.phy 	nbFramesWithInterferenceDropped 	5832
scalar Forest.networkOne[11].nic.phy 	nbFramesWithoutInterferenceDropped 	22216
scalar Forest.networkOne[11].netwl 	nbDataPacketsForwarded 	2484
scalar Forest.networkOne[11].netwl 	nbDataPacketsReceived 	0
scalar Forest.networkOne[11].netwl 	nbDataPacketsSent 	2500
scalar Forest.networkOne[11].netwl 	nbDuplicatedFloodsReceived 	29702
scalar Forest.networkOne[11].netwl 	nbFloodsSent 	0
scalar Forest.networkOne[11].netwl 	nbPureUnicastSent 	2500
scalar Forest.networkOne[11].netwl 	nbRouteFloodsSent 	0
scalar Forest.networkOne[11].netwl 	nbRouteFloodsReceived 	5
scalar Forest.networkOne[11].netwl 	nbUnicastFloodForwarded 	2479
scalar Forest.networkOne[11].netwl 	nbPureUnicastForwarded 	0
scalar Forest.networkOne[11].netwl 	nbGetRouteFailures 	0
scalar Forest.networkOne[11].netwl 	nbRoutesRecorded 	1
scalar Forest.networkOne[11].netwl 	meanNbHops 	-nan
scalar Forest.networkOne[11].tranl 	nbAggrPktReceived 	0
scalar Forest.networkOne[11].tranl 	"nbAggrPktSentDown " 	0
scalar Forest.networkOne[11].appl 	"activity duration" 	-1
attr unit  s
scalar Forest.networkOne[11].appl 	firstPacketGeneration 	-1
attr unit  s
scalar Forest.networkOne[11].appl 	lastPacketReception 	-2
attr unit  s
scalar Forest.networkOne[11].appl 	nbPacketsSent 	2500
scalar Forest.networkOne[11].appl 	nbPacketsReceived 	0
statistic Forest.networkOne[11].appl 	latency
field count 0
field mean 0
field stddev -nan
field sum 0
field sqrsum 0
field min 0
field max 0
scalar Forest.networkOne[11].batteryStats 	nominal 	10800000
attr unit  mW-s
scalar Forest.networkOne[11].batteryStats 	total 	282547.64626029
attr unit  mW-s
scalar Forest.networkOne[11].batteryStats 	lifetime 	-1
attr unit  s
scalar Forest.networkOne[11].batteryStats 	"Mean power consumption" 	56.395997642221
attr unit  mW
scalar Forest.networkOne[11].batteryStats 	"num devices" 	1
scalar Forest.networkOne[11].batteryStats 	"physical layer" 	0
scalar Forest.networkOne[11].batteryStats 	"device total (mWs)" 	282547.64625842
scalar Forest.networkOne[11].batteryStats 	account 	0
scalar Forest.networkOne[11].batteryStats 	"energy (mWs)" 	0
scalar Forest.networkOne[11].batteryStats 	"time (s)" 	0
scalar Forest.networkOne[11].batteryStats 	"account 0" 	0
scalar Forest.networkOne[11].batteryStats 	account 	1
scalar Forest.networkOne[11].batteryStats 	"energy (mWs)" 	282206.10124082
scalar Forest.networkOne[11].batteryStats 	"time (s)" 	5003.6542773194
scalar Forest.networkOne[11].batteryStats 	"account 1" 	282206.10124082
scalar Forest.networkOne[11].batteryStats 	account 	2
scalar Forest.networkOne[11].batteryStats 	"energy (mWs)" 	249.21866879997
scalar Forest.networkOne[11].batteryStats 	"time (s)" 	4.774304
scalar Forest.networkOne[11].batteryStats 	"account 2" 	249.21866879997
scalar Forest.networkOne[11].batteryStats 	account 	3
scalar Forest.networkOne[11].batteryStats 	"energy (mWs)" 	92.326348799991
scalar Forest.networkOne[11].batteryStats 	"time (s)" 	1.636992
scalar Forest.networkOne[11].batteryStats 	"account 3" 	92.326348799991
scalar Forest.networkOne[11].batteryStats 	account 	4
scalar Forest.networkOne[11].batteryStats 	"energy (mWs)" 	0
scalar Forest.networkOne[11].batteryStats 	"time (s)" 	0
scalar Forest.networkOne[11].batteryStats 	"account 4" 	0
scalar Forest.networkOne[12].nic.mac 	nbTxFrames 	4279
scalar Forest.networkOne[12].nic.mac 	nbRxFrames 	20624
scalar Forest.networkOne[12].nic.mac 	nbDroppedFrames 	705
scalar Forest.networkOne[12].nic.mac 	nbMissedAcks 	0
scalar Forest.networkOne[12].nic.mac 	nbRecvdAcks 	0
scalar Forest.networkOne[12].nic.mac 	nbTxAcks 	0
scalar Forest.networkOne[12].nic.mac 	nbDuplicates 	0
scalar Forest.networkOne[12].nic.mac 	meanBackoff 	0.0027449653663871
scalar Forest.networkOne[12].nic.mac 	nbBackoffs 	10972
scalar Forest.networkOne[12].nic.mac 	backoffDurations 	30.117759999999
scalar Forest.networkOne[12].nic.phy 	nbFramesWithInterference 	19336
scalar Forest.networkOne[12].nic.phy 	nbFramesWithoutInterference 	207955
scalar Forest.networkOne[12].nic.phy 	nbFramesWithInterferencePartial 	10631
scalar Forest.networkOne[12].nic.phy 	nbFramesWithoutInterferencePartial 	1461
scalar Forest.networkOne[12].nic.phy 	nbFramesWithInterferenceDropped 	5845
scalar Forest.networkOne[12].nic.phy 	nbFramesWithoutInterferenceDropped 	20687
scalar Forest.networkOne[12].netwl 	nbDataPacketsForwarded 	2484
scalar Forest.networkOne[12].netwl 	nbDataPacketsReceived 	0
scalar Forest.networkOne[12].netwl 	nbDataPacketsSent 	2500
scalar Forest.networkOne[12].netwl 	nbDuplicatedFloodsReceived 	29833
scalar Forest.networkOne[12].netwl 	nbFloodsSent 	0
scalar Forest.networkOne[12].netwl 	nbPureUnicastSent 	2500
scalar Forest.networkOne[12].netwl 	nbRouteFloodsSent 	0
scalar Forest.networkOne[12].netwl 	nbRouteFloodsReceived 	5
scalar Forest.networkOne[12].netwl 	nbUnicastFloodForwarded 	2479
scalar Forest.networkOne[12].netwl 	nbPureUnicastForwarded 	0
scalar Forest.networkOne[12].netwl 	nbGetRouteFailures 	0
scalar Forest.networkOne[12].netwl 	nbRoutesRecorded 	1
scalar Forest.networkOne[12].netwl 	meanNbHops 	-nan
scalar Forest.networkOne[12].tranl 	nbAggrPktReceived 	0
scalar Forest.networkOne[12].tranl 	"nbAggrPktSentDown " 	0
scalar Forest.networkOne[12].appl 	"activity duration" 	-1
attr unit  s
scalar Forest.networkOne[12].appl 	firstPacketGeneration 	-1
attr unit  s
scalar Forest.networkOne[12].appl 	lastPacketReception 	-2
attr unit  s
scalar Forest.networkOne[12].appl 	nbPacketsSent 	2500
scalar Forest.networkOne[12].appl 	nbPacketsReceived 	0
statistic Forest.networkOne[12].appl 	latency
field count 0
field mean 0
field stddev -nan
field sum 0
field sqrsum 0
field min 0
field max 0
scalar Forest.networkOne[12].batteryStats 	nominal 	10800000
attr unit  mW-s
scalar Forest.networkOne[12].batteryStats 	total 	282547.57126508
attr unit  mW-s
scalar Forest.networkOne[12].batteryStats 	lifetime 	-1
attr unit  s
scalar Forest.networkOne[12].batteryStats 	"Mean power consumption" 	56.395982673312
attr unit  mW
scalar Forest.networkOne[12].batteryStats 	"num devices" 	1
scalar Forest.networkOne[12].batteryStats 	"physical layer" 	0
scalar Forest.networkOne[12].batteryStats 	"device total (mWs)" 	282547.57126322
scalar Forest.networkOne[12].batteryStats 	account 	0
scalar Forest.networkOne[12].batteryStats 	"energy (mWs)" 	0
scalar Forest.networkOne[12].batteryStats 	"time (s)" 	0
scalar Forest.networkOne[12].batteryStats 	"account 0" 	0
scalar Forest.networkOne[12].batteryStats 	account 	1
scalar Forest.networkOne[12].batteryStats 	"energy (mWs)" 	282204.74764082
scalar Forest.networkOne[12].batteryStats 	"time (s)" 	5003.6302773194
scalar Forest.networkOne[12].batteryStats 	"account 1" 	282204.74764082
scalar Forest.networkOne[12].batteryStats 	account 	2
scalar Forest.networkOne[12].batteryStats 	"energy (mWs)" 	250.15075199997
scalar Forest.networkOne[12].batteryStats 	"time (s)" 	4.79216
scalar Forest.networkOne[12].batteryStats 	"account 2" 	250.15075199997
scalar Forest.networkOne[12].batteryStats 	account 	3
scalar Forest.networkOne[12].batteryStats 	"energy (mWs)" 	92.672870399991
scalar Forest.networkOne[12].batteryStats 	"time (s)" 	1.643136
scalar Forest.networkOne[12].batteryStats 	"account 3" 	92.672870399991
scalar Forest.networkOne[12].batteryStats 	account 	4
scalar Forest.networkOne[12].batteryStats 	"energy (mWs)" 	0
scalar Forest.networkOne[12].batteryStats 	"time (s)" 	0
scalar Forest.networkOne[12].batteryStats 	"account 4" 	0
scalar Forest.networkOne[13].nic.mac 	nbTxFrames 	7769
scalar Forest.networkOne[13].nic.mac 	nbRxFrames 	21079
scalar Forest.networkOne[13].nic.mac 	nbDroppedFrames 	742
scalar Forest.networkOne[13].nic.mac 	nbMissedAcks 	0
scalar Forest.networkOne[13].nic.mac 	nbRecvdAcks 	0
scalar Forest.networkOne[13].nic.mac 	nbTxAcks 	0
scalar Forest.networkOne[13].nic.mac 	nbDuplicates 	0
scalar Forest.networkOne[13].nic.mac 	meanBackoff 	0.0023368799463447
scalar Forest.networkOne[13].nic.mac 	nbBackoffs 	14910
scalar Forest.networkOne[13].nic.mac 	backoffDurations 	34.84288
scalar Forest.networkOne[13].nic.phy 	nbFramesWithInterference 	18805
scalar Forest.networkOne[13].nic.phy 	nbFramesWithoutInterference 	212134
scalar Forest.networkOne[13].nic.phy 	nbFramesWithInterferencePartial 	11635
scalar Forest.networkOne[13].nic.phy 	nbFramesWithoutInterferencePartial 	1442
scalar Forest.networkOne[13].nic.phy 	nbFramesWithInterferenceDropped 	5844
scalar Forest.networkOne[13].nic.phy 	nbFramesWithoutInterferenceDropped 	19289
scalar Forest.networkOne[13].netwl 	nbDataPacketsForwarded 	3520
scalar Forest.networkOne[13].netwl 	nbDataPacketsReceived 	0
scalar Forest.networkOne[13].netwl 	nbDataPacketsSent 	4991
scalar Forest.networkOne[13].netwl 	nbDuplicatedFloodsReceived 	29513
scalar Forest.networkOne[13].netwl 	nbFloodsSent 	0
scalar Forest.networkOne[13].netwl 	nbPureUnicastSent 	4991
[...]
scalar Forest.networkOne[76].netwl 	nbDataPacketsForwarded 	4223
scalar Forest.networkOne[76].netwl 	nbDataPacketsReceived 	0
scalar Forest.networkOne[76].netwl 	nbDataPacketsSent 	2500
scalar Forest.networkOne[76].netwl 	nbDuplicatedFloodsReceived 	25718
scalar Forest.networkOne[76].netwl 	nbFloodsSent 	0
scalar Forest.networkOne[76].netwl 	nbPureUnicastSent 	2500
scalar Forest.networkOne[76].netwl 	nbRouteFloodsSent 	0
scalar Forest.networkOne[76].netwl 	nbRouteFloodsReceived 	5
scalar Forest.networkOne[76].netwl 	nbUnicastFloodForwarded 	2479
scalar Forest.networkOne[76].netwl 	nbPureUnicastForwarded 	1739
scalar Forest.networkOne[76].netwl 	nbGetRouteFailures 	0
scalar Forest.networkOne[76].netwl 	nbRoutesRecorded 	1
scalar Forest.networkOne[76].netwl 	meanNbHops 	-nan
scalar Forest.networkOne[76].tranl 	nbAggrPktReceived 	0
scalar Forest.networkOne[76].tranl 	"nbAggrPktSentDown " 	0
scalar Forest.networkOne[76].appl 	"activity duration" 	-1
attr unit  s
scalar Forest.networkOne[76].appl 	firstPacketGeneration 	-1
attr unit  s
scalar Forest.networkOne[76].appl 	lastPacketReception 	-2
attr unit  s
scalar Forest.networkOne[76].appl 	nbPacketsSent 	2500
scalar Forest.networkOne[76].appl 	nbPacketsReceived 	0
statistic Forest.networkOne[76].appl 	latency
field count 0
field mean 0
field stddev -nan
field sum 0
field sqrsum 0
field min 0
field max 0
scalar Forest.networkOne[76].batteryStats 	nominal 	10800000
attr unit  mW-s
scalar Forest.networkOne[76].batteryStats 	total 	282538.83096508
attr unit  mW-s
scalar Forest.networkOne[76].batteryStats 	lifetime 	-1
attr unit  s
scalar Forest.networkOne[76].batteryStats 	"Mean power consumption" 	56.394238125287
attr unit  mW
scalar Forest.networkOne[76].batteryStats 	"num devices" 	1
scalar Forest.networkOne[76].batteryStats 	"physical layer" 	0
scalar Forest.networkOne[76].batteryStats 	"device total (mWs)" 	282538.83096242
scalar Forest.networkOne[76].batteryStats 	account 	0
scalar Forest.networkOne[76].batteryStats 	"energy (mWs)" 	0
scalar Forest.networkOne[76].batteryStats 	"time (s)" 	0
scalar Forest.networkOne[76].batteryStats 	"account 0" 	0
scalar Forest.networkOne[76].batteryStats 	account 	1
scalar Forest.networkOne[76].batteryStats 	"energy (mWs)" 	282047.13806642
scalar Forest.networkOne[76].batteryStats 	"time (s)" 	5000.8357813194
scalar Forest.networkOne[76].batteryStats 	"account 1" 	282047.13806642
scalar Forest.networkOne[76].batteryStats 	account 	2
scalar Forest.networkOne[76].batteryStats 	"energy (mWs)" 	358.7802048
scalar Forest.networkOne[76].batteryStats 	"time (s)" 	6.873184
scalar Forest.networkOne[76].batteryStats 	"account 2" 	358.7802048
scalar Forest.networkOne[76].batteryStats 	account 	3
scalar Forest.networkOne[76].batteryStats 	"energy (mWs)" 	132.91269119999
scalar Forest.networkOne[76].batteryStats 	"time (s)" 	2.356608
scalar Forest.networkOne[76].batteryStats 	"account 3" 	132.91269119999
scalar Forest.networkOne[76].batteryStats 	account 	4
scalar Forest.networkOne[76].batteryStats 	"energy (mWs)" 	0
scalar Forest.networkOne[76].batteryStats 	"time (s)" 	0
scalar Forest.networkOne[76].batteryStats 	"account 4" 	0
scalar Forest.networkOne[77].nic.mac 	nbTxFrames 	4383
scalar Forest.networkOne[77].nic.mac 	nbRxFrames 	17285
scalar Forest.networkOne[77].nic.mac 	nbDroppedFrames 	601
scalar Forest.networkOne[77].nic.mac 	nbMissedAcks 	0
scalar Forest.networkOne[77].nic.mac 	nbRecvdAcks 	0
scalar Forest.networkOne[77].nic.mac 	nbTxAcks 	0
scalar Forest.networkOne[77].nic.mac 	nbDuplicates 	0
scalar Forest.networkOne[77].nic.mac 	meanBackoff 	0.0026910647720981
scalar Forest.networkOne[77].nic.mac 	nbBackoffs 	10838
scalar Forest.networkOne[77].nic.mac 	backoffDurations 	29.165759999999
scalar Forest.networkOne[77].nic.phy 	nbFramesWithInterference 	12522
scalar Forest.networkOne[77].nic.phy 	nbFramesWithoutInterference 	184852
scalar Forest.networkOne[77].nic.phy 	nbFramesWithInterferencePartial 	13517
scalar Forest.networkOne[77].nic.phy 	nbFramesWithoutInterferencePartial 	1608
scalar Forest.networkOne[77].nic.phy 	nbFramesWithInterferenceDropped 	5723
scalar Forest.networkOne[77].nic.phy 	nbFramesWithoutInterferenceDropped 	22662
scalar Forest.networkOne[77].netwl 	nbDataPacketsForwarded 	2484
scalar Forest.networkOne[77].netwl 	nbDataPacketsReceived 	0
scalar Forest.networkOne[77].netwl 	nbDataPacketsSent 	2500
scalar Forest.networkOne[77].netwl 	nbDuplicatedFloodsReceived 	25334
scalar Forest.networkOne[77].netwl 	nbFloodsSent 	0
scalar Forest.networkOne[77].netwl 	nbPureUnicastSent 	2500
scalar Forest.networkOne[77].netwl 	nbRouteFloodsSent 	0
scalar Forest.networkOne[77].netwl 	nbRouteFloodsReceived 	5
scalar Forest.networkOne[77].netwl 	nbUnicastFloodForwarded 	2479
scalar Forest.networkOne[77].netwl 	nbPureUnicastForwarded 	0
scalar Forest.networkOne[77].netwl 	nbGetRouteFailures 	0
scalar Forest.networkOne[77].netwl 	nbRoutesRecorded 	1
scalar Forest.networkOne[77].netwl 	meanNbHops 	-nan
scalar Forest.networkOne[77].tranl 	nbAggrPktReceived 	0
scalar Forest.networkOne[77].tranl 	"nbAggrPktSentDown " 	0
scalar Forest.networkOne[77].appl 	"activity duration" 	-1
attr unit  s
scalar Forest.networkOne[77].appl 	firstPacketGeneration 	-1
attr unit  s
scalar Forest.networkOne[77].appl 	lastPacketReception 	-2
attr unit  s
scalar Forest.networkOne[77].appl 	nbPacketsSent 	2500
scalar Forest.networkOne[77].appl 	nbPacketsReceived 	0
statistic Forest.networkOne[77].appl 	latency
field count 0
field mean 0
field stddev -nan
field sum 0
field sqrsum 0
field min 0
field max 0
scalar Forest.networkOne[77].batteryStats 	nominal 	10800000
attr unit  mW-s
scalar Forest.networkOne[77].batteryStats 	total 	282547.0820491
attr unit  mW-s
scalar Forest.networkOne[77].batteryStats 	lifetime 	-1
attr unit  s
scalar Forest.networkOne[77].batteryStats 	"Mean power consumption" 	56.395885026689
attr unit  mW
scalar Forest.networkOne[77].batteryStats 	"num devices" 	1
scalar Forest.networkOne[77].batteryStats 	"physical layer" 	0
scalar Forest.networkOne[77].batteryStats 	"device total (mWs)" 	282547.08204722
scalar Forest.networkOne[77].batteryStats 	account 	0
scalar Forest.networkOne[77].batteryStats 	"energy (mWs)" 	0
scalar Forest.networkOne[77].batteryStats 	"time (s)" 	0
scalar Forest.networkOne[77].batteryStats 	"account 0" 	0
scalar Forest.networkOne[77].batteryStats 	account 	1
scalar Forest.networkOne[77].batteryStats 	"energy (mWs)" 	282195.92577842
scalar Forest.networkOne[77].batteryStats 	"time (s)" 	5003.4738613194
scalar Forest.networkOne[77].batteryStats 	"account 1" 	282195.92577842
scalar Forest.networkOne[77].batteryStats 	account 	2
scalar Forest.networkOne[77].batteryStats 	"energy (mWs)" 	256.23100799997
scalar Forest.networkOne[77].batteryStats 	"time (s)" 	4.90864
scalar Forest.networkOne[77].batteryStats 	"account 2" 	256.23100799997
scalar Forest.networkOne[77].batteryStats 	account 	3
scalar Forest.networkOne[77].batteryStats 	"energy (mWs)" 	94.925260799991
scalar Forest.networkOne[77].batteryStats 	"time (s)" 	1.683072
scalar Forest.networkOne[77].batteryStats 	"account 3" 	94.925260799991
scalar Forest.networkOne[77].batteryStats 	account 	4
scalar Forest.networkOne[77].batteryStats 	"energy (mWs)" 	0
scalar Forest.networkOne[77].batteryStats 	"time (s)" 	0
scalar Forest.networkOne[77].batteryStats 	"account 4" 	0
scalar Forest.networkOne[78].nic.mac 	nbTxFrames 	4417
scalar Forest.networkOne[78].nic.mac 	nbRxFrames 	16952
scalar Forest.networkOne[78].nic.mac 	nbDroppedFrames 	567
scalar Forest.networkOne[78].nic.mac 	nbMissedAcks 	0
scalar Forest.networkOne[78].nic.mac 	nbRecvdAcks 	0
scalar Forest.networkOne[78].nic.mac 	nbTxAcks 	0
scalar Forest.networkOne[78].nic.mac 	nbDuplicates 	0
scalar Forest.networkOne[78].nic.mac 	meanBackoff 	0.0026388017489999
scalar Forest.networkOne[78].nic.mac 	nbBackoffs 	10749
scalar Forest.networkOne[78].nic.mac 	backoffDurations 	28.364479999999
scalar Forest.networkOne[78].nic.phy 	nbFramesWithInterference 	12169
scalar Forest.networkOne[78].nic.phy 	nbFramesWithoutInterference 	174188
scalar Forest.networkOne[78].nic.phy 	nbFramesWithInterferencePartial 	12524
scalar Forest.networkOne[78].nic.phy 	nbFramesWithoutInterferencePartial 	1674
scalar Forest.networkOne[78].nic.phy 	nbFramesWithInterferenceDropped 	5639
scalar Forest.networkOne[78].nic.phy 	nbFramesWithoutInterferenceDropped 	23084
scalar Forest.networkOne[78].netwl 	nbDataPacketsForwarded 	2484
scalar Forest.networkOne[78].netwl 	nbDataPacketsReceived 	0
scalar Forest.networkOne[78].netwl 	nbDataPacketsSent 	2500
scalar Forest.networkOne[78].netwl 	nbDuplicatedFloodsReceived 	24793
scalar Forest.networkOne[78].netwl 	nbFloodsSent 	0
scalar Forest.networkOne[78].netwl 	nbPureUnicastSent 	2500
scalar Forest.networkOne[78].netwl 	nbRouteFloodsSent 	0
scalar Forest.networkOne[78].netwl 	nbRouteFloodsReceived 	5
scalar Forest.networkOne[78].netwl 	nbUnicastFloodForwarded 	2479
scalar Forest.networkOne[78].netwl 	nbPureUnicastForwarded 	0
scalar Forest.networkOne[78].netwl 	nbGetRouteFailures 	0
scalar Forest.networkOne[78].netwl 	nbRoutesRecorded 	1
scalar Forest.networkOne[78].netwl 	meanNbHops 	-nan
scalar Forest.networkOne[78].tranl 	nbAggrPktReceived 	0
scalar Forest.networkOne[78].tranl 	"nbAggrPktSentDown " 	0
scalar Forest.networkOne[78].appl 	"activity duration" 	-1
attr unit  s
scalar Forest.networkOne[78].appl 	firstPacketGeneration 	-1
attr unit  s
scalar Forest.networkOne[78].appl 	lastPacketReception 	-2
attr unit  s
scalar Forest.networkOne[78].appl 	nbPacketsSent 	2500
scalar Forest.networkOne[78].appl 	nbPacketsReceived 	0
statistic Forest.networkOne[78].appl 	latency
field count 0
field mean 0
field stddev -nan
field sum 0
field sqrsum 0
field min 0
field max 0
scalar Forest.networkOne[78].batteryStats 	nominal 	10800000
attr unit  mW-s
scalar Forest.networkOne[78].batteryStats 	total 	282546.92184435
attr unit  mW-s
scalar Forest.networkOne[78].batteryStats 	lifetime 	-1
attr unit  s
scalar Forest.networkOne[78].batteryStats 	"Mean power consumption" 	56.395853050113
attr unit  mW
scalar Forest.networkOne[78].batteryStats 	"num devices" 	1
scalar Forest.networkOne[78].batteryStats 	"physical layer" 	0
scalar Forest.networkOne[78].batteryStats 	"device total (mWs)" 	282546.92184242
scalar Forest.networkOne[78].batteryStats 	account 	0
scalar Forest.networkOne[78].batteryStats 	"energy (mWs)" 	0
scalar Forest.networkOne[78].batteryStats 	"time (s)" 	0
scalar Forest.networkOne[78].batteryStats 	"account 0" 	0
scalar Forest.networkOne[78].batteryStats 	account 	1
scalar Forest.networkOne[78].batteryStats 	"energy (mWs)" 	282193.03809842
scalar Forest.networkOne[78].batteryStats 	"time (s)" 	5003.4226613194
scalar Forest.networkOne[78].batteryStats 	"account 1" 	282193.03809842
scalar Forest.networkOne[78].batteryStats 	account 	2
scalar Forest.networkOne[78].batteryStats 	"energy (mWs)" 	258.22212479997
scalar Forest.networkOne[78].batteryStats 	"time (s)" 	4.946784
scalar Forest.networkOne[78].batteryStats 	"account 2" 	258.22212479997
scalar Forest.networkOne[78].batteryStats 	account 	3
scalar Forest.networkOne[78].batteryStats 	"energy (mWs)" 	95.661619199991
scalar Forest.networkOne[78].batteryStats 	"time (s)" 	1.696128
scalar Forest.networkOne[78].batteryStats 	"account 3" 	95.661619199991
scalar Forest.networkOne[78].batteryStats 	account 	4
scalar Forest.networkOne[78].batteryStats 	"energy (mWs)" 	0
scalar Forest.networkOne[78].batteryStats 	"time (s)" 	0
scalar Forest.networkOne[78].batteryStats 	"account 4" 	0
scalar Forest.networkOne[79].nic.mac 	nbTxFrames 	4413
scalar Forest.networkOne[79].nic.mac 	nbRxFrames 	16125
scalar Forest.networkOne[79].nic.mac 	nbDroppedFrames 	571
scalar Forest.networkOne[79].nic.mac 	nbMissedAcks 	0
scalar Forest.networkOne[79].nic.mac 	nbRecvdAcks 	0
scalar Forest.networkOne[79].nic.mac 	nbTxAcks 	0
scalar Forest.networkOne[79].nic.mac 	nbDuplicates 	0
scalar Forest.networkOne[79].nic.mac 	meanBackoff 	0.0026436220176592
scalar Forest.networkOne[79].nic.mac 	nbBackoffs 	10646
scalar Forest.networkOne[79].nic.mac 	backoffDurations 	28.144
scalar Forest.networkOne[79].nic.phy 	nbFramesWithInterference 	11574
scalar Forest.networkOne[79].nic.phy 	nbFramesWithoutInterference 	155913
scalar Forest.networkOne[79].nic.phy 	nbFramesWithInterferencePartial 	11374
scalar Forest.networkOne[79].nic.phy 	nbFramesWithoutInterferencePartial 	1752
scalar Forest.networkOne[79].nic.phy 	nbFramesWithInterferenceDropped 	5488
scalar Forest.networkOne[79].nic.phy 	nbFramesWithoutInterferenceDropped 	23630
scalar Forest.networkOne[79].netwl 	nbDataPacketsForwarded 	2484
scalar Forest.networkOne[79].netwl 	nbDataPacketsReceived 	0
scalar Forest.networkOne[79].netwl 	nbDataPacketsSent 	2500
scalar Forest.networkOne[79].netwl 	nbDuplicatedFloodsReceived 	23503
scalar Forest.networkOne[79].netwl 	nbFloodsSent 	0
scalar Forest.networkOne[79].netwl 	nbPureUnicastSent 	2500
scalar Forest.networkOne[79].netwl 	nbRouteFloodsSent 	0
scalar Forest.networkOne[79].netwl 	nbRouteFloodsReceived 	5
scalar Forest.networkOne[79].netwl 	nbUnicastFloodForwarded 	2479
scalar Forest.networkOne[79].netwl 	nbPureUnicastForwarded 	0
scalar Forest.networkOne[79].netwl 	nbGetRouteFailures 	0
scalar Forest.networkOne[79].netwl 	nbRoutesRecorded 	1
scalar Forest.networkOne[79].netwl 	meanNbHops 	-nan
scalar Forest.networkOne[79].tranl 	nbAggrPktReceived 	0
scalar Forest.networkOne[79].tranl 	"nbAggrPktSentDown " 	0
scalar Forest.networkOne[79].appl 	"activity duration" 	-1
attr unit  s
scalar Forest.networkOne[79].appl 	firstPacketGeneration 	-1
attr unit  s
scalar Forest.networkOne[79].appl 	lastPacketReception 	-2
attr unit  s
scalar Forest.networkOne[79].appl 	nbPacketsSent 	2500
scalar Forest.networkOne[79].appl 	nbPacketsReceived 	0
statistic Forest.networkOne[79].appl 	latency
field count 0
field mean 0
field stddev -nan
field sum 0
field sqrsum 0
field min 0
field max 0
scalar Forest.networkOne[79].batteryStats 	nominal 	10800000
attr unit  mW-s
scalar Forest.networkOne[79].batteryStats 	total 	282546.94039154
attr unit  mW-s
scalar Forest.networkOne[79].batteryStats 	lifetime 	-1
attr unit  s
scalar Forest.networkOne[79].batteryStats 	"Mean power consumption" 	56.395856752098
attr unit  mW
scalar Forest.networkOne[79].batteryStats 	"num devices" 	1
scalar Forest.networkOne[79].batteryStats 	"physical layer" 	0
scalar Forest.networkOne[79].batteryStats 	"device total (mWs)" 	282546.94038962
scalar Forest.networkOne[79].batteryStats 	account 	0
scalar Forest.networkOne[79].batteryStats 	"energy (mWs)" 	0
scalar Forest.networkOne[79].batteryStats 	"time (s)" 	0
scalar Forest.networkOne[79].batteryStats 	"account 0" 	0
scalar Forest.networkOne[79].batteryStats 	account 	1
scalar Forest.networkOne[79].batteryStats 	"energy (mWs)" 	282193.37379122
scalar Forest.networkOne[79].batteryStats 	"time (s)" 	5003.4286133194
scalar Forest.networkOne[79].batteryStats 	"account 1" 	282193.37379122
scalar Forest.networkOne[79].batteryStats 	account 	2
scalar Forest.networkOne[79].batteryStats 	"energy (mWs)" 	257.99160959997
scalar Forest.networkOne[79].batteryStats 	"time (s)" 	4.942368
scalar Forest.networkOne[79].batteryStats 	"account 2" 	257.99160959997
scalar Forest.networkOne[79].batteryStats 	account 	3
scalar Forest.networkOne[79].batteryStats 	"energy (mWs)" 	95.574988799991
scalar Forest.networkOne[79].batteryStats 	"time (s)" 	1.694592
scalar Forest.networkOne[79].batteryStats 	"account 3" 	95.574988799991
scalar Forest.networkOne[79].batteryStats 	account 	4
scalar Forest.networkOne[79].batteryStats 	"energy (mWs)" 	0
scalar Forest.networkOne[79].batteryStats 	"time (s)" 	0
scalar Forest.networkOne[79].batteryStats 	"account 4" 	0
scalar Forest.networkOne[80].nic.mac 	nbTxFrames 	4427
scalar Forest.networkOne[80].nic.mac 	nbRxFrames 	14538
scalar Forest.networkOne[80].nic.mac 	nbDroppedFrames 	557
scalar Forest.networkOne[80].nic.mac 	nbMissedAcks 	0
scalar Forest.networkOne[80].nic.mac 	nbRecvdAcks 	0
scalar Forest.networkOne[80].nic.mac 	nbTxAcks 	0
scalar Forest.networkOne[80].nic.mac 	nbDuplicates 	0
scalar Forest.networkOne[80].nic.mac 	meanBackoff 	0.0026867285937643
scalar Forest.networkOne[80].nic.mac 	nbBackoffs 	10873
scalar Forest.networkOne[80].nic.mac 	backoffDurations 	29.212799999999
scalar Forest.networkOne[80].nic.phy 	nbFramesWithInterference 	10905
scalar Forest.networkOne[80].nic.phy 	nbFramesWithoutInterference 	133806
scalar Forest.networkOne[80].nic.phy 	nbFramesWithInterferencePartial 	9166
scalar Forest.networkOne[80].nic.phy 	nbFramesWithoutInterferencePartial 	1724
scalar Forest.networkOne[80].nic.phy 	nbFramesWithInterferenceDropped 	5637
scalar Forest.networkOne[80].nic.phy 	nbFramesWithoutInterferenceDropped 	23765
scalar Forest.networkOne[80].netwl 	nbDataPacketsForwarded 	2484
scalar Forest.networkOne[80].netwl 	nbDataPacketsReceived 	0
scalar Forest.networkOne[80].netwl 	nbDataPacketsSent 	2500
scalar Forest.networkOne[80].netwl 	nbDuplicatedFloodsReceived 	21878
scalar Forest.networkOne[80].netwl 	nbFloodsSent 	0
scalar Forest.networkOne[80].netwl 	nbPureUnicastSent 	2500
scalar Forest.networkOne[80].netwl 	nbRouteFloodsSent 	0
scalar Forest.networkOne[80].netwl 	nbRouteFloodsReceived 	5
scalar Forest.networkOne[80].netwl 	nbUnicastFloodForwarded 	2479
scalar Forest.networkOne[80].netwl 	nbPureUnicastForwarded 	0
scalar Forest.networkOne[80].netwl 	nbGetRouteFailures 	0
scalar Forest.networkOne[80].netwl 	nbRoutesRecorded 	1
scalar Forest.networkOne[80].netwl 	meanNbHops 	-nan
scalar Forest.networkOne[80].tranl 	nbAggrPktReceived 	0
scalar Forest.networkOne[80].tranl 	"nbAggrPktSentDown " 	0
scalar Forest.networkOne[80].appl 	"activity duration" 	-1
attr unit  s
scalar Forest.networkOne[80].appl 	firstPacketGeneration 	-1
attr unit  s
scalar Forest.networkOne[80].appl 	lastPacketReception 	-2
attr unit  s
scalar Forest.networkOne[80].appl 	nbPacketsSent 	2500
scalar Forest.networkOne[80].appl 	nbPacketsReceived 	0
statistic Forest.networkOne[80].appl 	latency
field count 0
field mean 0
field stddev -nan
field sum 0
field sqrsum 0
field min 0
field max 0
scalar Forest.networkOne[80].batteryStats 	nominal 	10800000
attr unit  mW-s
scalar Forest.networkOne[80].batteryStats 	total 	282546.87507309
attr unit  mW-s
scalar Forest.networkOne[80].batteryStats 	lifetime 	-1
attr unit  s
scalar Forest.networkOne[80].batteryStats 	"Mean power consumption" 	56.395843714655
attr unit  mW
scalar Forest.networkOne[80].batteryStats 	"num devices" 	1
scalar Forest.networkOne[80].batteryStats 	"physical layer" 	0
scalar Forest.networkOne[80].batteryStats 	"device total (mWs)" 	282546.87507122
scalar Forest.networkOne[80].batteryStats 	account 	0
scalar Forest.networkOne[80].batteryStats 	"energy (mWs)" 	0
scalar Forest.networkOne[80].batteryStats 	"time (s)" 	0
scalar Forest.networkOne[80].batteryStats 	"account 0" 	0
scalar Forest.networkOne[80].batteryStats 	account 	1
scalar Forest.networkOne[80].batteryStats 	"energy (mWs)" 	282192.19345202
scalar Forest.networkOne[80].batteryStats 	"time (s)" 	5003.4076853194
scalar Forest.networkOne[80].batteryStats 	"account 1" 	282192.19345202
scalar Forest.networkOne[80].batteryStats 	account 	2
scalar Forest.networkOne[80].batteryStats 	"energy (mWs)" 	258.80342399997
scalar Forest.networkOne[80].batteryStats 	"time (s)" 	4.95792
scalar Forest.networkOne[80].batteryStats 	"account 2" 	258.80342399997
scalar Forest.networkOne[80].batteryStats 	account 	3
scalar Forest.networkOne[80].batteryStats 	"energy (mWs)" 	95.878195199991
scalar Forest.networkOne[80].batteryStats 	"time (s)" 	1.699968
scalar Forest.networkOne[80].batteryStats 	"account 3" 	95.878195199991
scalar Forest.networkOne[80].batteryStats 	account 	4
scalar Forest.networkOne[80].batteryStats 	"energy (mWs)" 	0
scalar Forest.networkOne[80].batteryStats 	"time (s)" 	0
scalar Forest.networkOne[80].batteryStats 	"account 4" 	0
