version 2
run Nodes_in_grid-1-20130618-16:57:40-14483
attr configname Nodes_in_grid
attr datetime 20130618-16:57:40
attr experiment Nodes_in_grid
attr inifile omnetpp.ini
attr iterationvars "$0=5000, $1=5000, $2=5000, $3=5000, $4=5000, $5=5000, $6=5000, $7=5000, $8=5000, $9=0, $10=0, $11=0, $12=0, $13=0, $14=0, $15=0, $16=0, $17=0, $18=0, $19=2, $plan=2, $sensitivity=-100dBm, $20=0, $21=0"
attr iterationvars2 "$0=5000, $1=5000, $2=5000, $3=5000, $4=5000, $5=5000, $6=5000, $7=5000, $8=5000, $9=0, $10=0, $11=0, $12=0, $13=0, $14=0, $15=0, $16=0, $17=0, $18=0, $19=2, $plan=2, $sensitivity=-100dBm, $20=0, $21=0, $repetition=0"
attr measurement "$0=5000, $1=5000, $2=5000, $3=5000, $4=5000, $5=5000, $6=5000, $7=5000, $8=5000, $9=0, $10=0, $11=0, $12=0, $13=0, $14=0, $15=0, $16=0, $17=0, $18=0, $19=2, $plan=2, $sensitivity=-100dBm, $20=0, $21=0"
attr network Forest
attr plan 2
attr processid 14483
attr repetition 0
attr replication #0
attr resultdir results
attr runnumber 1
attr seedset 1
attr sensitivity -100dBm

scalar . 	plan 	2
scalar . 	sensitivity 	-100
attr unit  dBm
scalar Forest.networkOne[0].nic.mac 	nbTxFrames 	5
scalar Forest.networkOne[0].nic.mac 	nbRxFrames 	22762
scalar Forest.networkOne[0].nic.mac 	nbDroppedFrames 	0
scalar Forest.networkOne[0].nic.mac 	nbMissedAcks 	0
scalar Forest.networkOne[0].nic.mac 	nbRecvdAcks 	0
scalar Forest.networkOne[0].nic.mac 	nbTxAcks 	0
scalar Forest.networkOne[0].nic.mac 	nbDuplicates 	0
scalar Forest.networkOne[0].nic.mac 	meanBackoff 	0.001216
scalar Forest.networkOne[0].nic.mac 	nbBackoffs 	5
scalar Forest.networkOne[0].nic.mac 	backoffDurations 	0.00608
scalar Forest.networkOne[0].nic.phy 	nbFramesWithInterference 	58
scalar Forest.networkOne[0].nic.phy 	nbFramesWithoutInterference 	30484
scalar Forest.networkOne[0].nic.phy 	nbFramesWithInterferencePartial 	15
scalar Forest.networkOne[0].nic.phy 	nbFramesWithoutInterferencePartial 	338
scalar Forest.networkOne[0].nic.phy 	nbFramesWithInterferenceDropped 	11
scalar Forest.networkOne[0].nic.phy 	nbFramesWithoutInterferenceDropped 	4656
scalar Forest.networkOne[0].netwl 	nbDataPacketsForwarded 	0
scalar Forest.networkOne[0].netwl 	nbDataPacketsReceived 	22745
scalar Forest.networkOne[0].netwl 	nbDataPacketsSent 	0
scalar Forest.networkOne[0].netwl 	nbDuplicatedFloodsReceived 	17
scalar Forest.networkOne[0].netwl 	nbFloodsSent 	5
scalar Forest.networkOne[0].netwl 	nbPureUnicastSent 	0
scalar Forest.networkOne[0].netwl 	nbRouteFloodsSent 	5
scalar Forest.networkOne[0].netwl 	nbRouteFloodsReceived 	0
scalar Forest.networkOne[0].netwl 	nbUnicastFloodForwarded 	0
scalar Forest.networkOne[0].netwl 	nbPureUnicastForwarded 	0
scalar Forest.networkOne[0].netwl 	nbGetRouteFailures 	0
scalar Forest.networkOne[0].netwl 	nbRoutesRecorded 	0
scalar Forest.networkOne[0].netwl 	meanNbHops 	0.62057595075841
scalar Forest.networkOne[0].tranl 	nbAggrPktReceived 	0
scalar Forest.networkOne[0].tranl 	"nbAggrPktSentDown " 	0
scalar Forest.networkOne[0].appl 	latency10 	0.0044056507310968
attr unit  s
statistic Forest.networkOne[0].appl 	10
field count 4990
field mean 0.0044056507310968
field stddev 0.00093223884738592
field sum 21.984197148173
field sqrsum 0.10119048081935
field min 0.003232
field max 0.019495661666
scalar Forest.networkOne[0].appl 	latency13 	0.008924143136681
attr unit  s
statistic Forest.networkOne[0].appl 	13
field count 4473
field mean 0.008924143136681
field stddev 0.0015689240469977
field sum 39.917692250374
field sqrsum 0.36723912868731
field min 0.006464
field max 0.026304
scalar Forest.networkOne[0].appl 	latency16 	0.0088404524615276
attr unit  s
statistic Forest.networkOne[0].appl 	16
field count 1702
field mean 0.0088404524615276
field stddev 0.0014217655278325
field sum 15.04645008952
field sqrsum 0.13645585741579
field min 0.006464
field max 0.021504
scalar Forest.networkOne[0].appl 	latency37 	0.0044396762491848
attr unit  s
statistic Forest.networkOne[0].appl 	37
field count 3351
field mean 0.0044396762491848
field stddev 0.00098189569982157
field sum 14.877355111018
field sqrsum 0.069280439340924
field min 0.003232
field max 0.018912
scalar Forest.networkOne[0].appl 	latency40 	0.004458503806142
attr unit  s
statistic Forest.networkOne[0].appl 	40
field count 1831
field mean 0.004458503806142
field stddev 0.00098929141968589
field sum 8.163520469046
field sqrsum 0.038188103531667
field min 0.003232
field max 0.012832
scalar Forest.networkOne[0].appl 	latency43 	0.0089393867268544
attr unit  s
statistic Forest.networkOne[0].appl 	43
field count 1807
field mean 0.0089393867268544
field stddev 0.0015870876747054
field sum 16.153471815426
field sqrsum 0.14895116974012
field min 0.006464
field max 0.022784
scalar Forest.networkOne[0].appl 	latency64 	0.0088902219824075
attr unit  s
statistic Forest.networkOne[0].appl 	64
field count 1298
field mean 0.0088902219824075
field stddev 0.0018092983568767
field sum 11.539508133165
field sqrsum 0.10683459689746
field min 0.006464
field max 0.044227018298
scalar Forest.networkOne[0].appl 	latency67 	0.0089324549455494
attr unit  s
statistic Forest.networkOne[0].appl 	67
field count 1751
field mean 0.0089324549455494
field stddev 0.0015973484380719
field sum 15.640728609657
field sqrsum 0.1441752671784
field min 0.006464
field max 0.024704
scalar Forest.networkOne[0].appl 	latency70 	0.013468486584184
attr unit  s
statistic Forest.networkOne[0].appl 	70
field count 1542
field mean 0.013468486584184
field stddev 0.0020329652431672
field sum 20.768406312811
field sqrsum 0.28608787417373
field min 0.009696
field max 0.029536
scalar Forest.networkOne[0].appl 	"activity duration" 	4997.0847484178
attr unit  s
scalar Forest.networkOne[0].appl 	firstPacketGeneration 	10.00011438108
attr unit  s
scalar Forest.networkOne[0].appl 	lastPacketReception 	5007.0848627989
attr unit  s
scalar Forest.networkOne[0].appl 	nbPacketsSent 	0
scalar Forest.networkOne[0].appl 	nbPacketsReceived 	22745
statistic Forest.networkOne[0].appl 	latency
field count 22745
field mean 0.0072143912921163
field stddev 0.0030716031139123
field sum 164.09132993918
field sqrsum 1.3984029177846
field min 0.003232
field max 0.044227018298
scalar Forest.networkOne[0].batteryStats 	nominal 	10800000
attr unit  mW-s
scalar Forest.networkOne[0].batteryStats 	total 	282564.76707711
attr unit  mW-s
scalar Forest.networkOne[0].batteryStats 	lifetime 	-1
attr unit  s
scalar Forest.networkOne[0].batteryStats 	"Mean power consumption" 	56.389651061143
attr unit  mW
scalar Forest.networkOne[0].batteryStats 	"num devices" 	1
scalar Forest.networkOne[0].batteryStats 	"physical layer" 	0
scalar Forest.networkOne[0].batteryStats 	"device total (mWs)" 	282564.76707711
scalar Forest.networkOne[0].batteryStats 	account 	0
scalar Forest.networkOne[0].batteryStats 	"energy (mWs)" 	5.7792545901531e-05
scalar Forest.networkOne[0].batteryStats 	"time (s)" 	0.917341998437
scalar Forest.networkOne[0].batteryStats 	"account 0" 	5.7792545901531e-05
scalar Forest.networkOne[0].batteryStats 	account 	1
scalar Forest.networkOne[0].batteryStats 	"energy (mWs)" 	282564.37967952
scalar Forest.networkOne[0].batteryStats 	"time (s)" 	5010.0067319063
scalar Forest.networkOne[0].batteryStats 	"account 1" 	282564.37967952
scalar Forest.networkOne[0].batteryStats 	account 	2
scalar Forest.networkOne[0].batteryStats 	"energy (mWs)" 	0.275616
scalar Forest.networkOne[0].batteryStats 	"time (s)" 	0.00528
scalar Forest.networkOne[0].batteryStats 	"account 2" 	0.275616
scalar Forest.networkOne[0].batteryStats 	account 	3
scalar Forest.networkOne[0].batteryStats 	"energy (mWs)" 	0.1117238016
scalar Forest.networkOne[0].batteryStats 	"time (s)" 	0.003712
scalar Forest.networkOne[0].batteryStats 	"account 3" 	0.1117238016
scalar Forest.networkOne[0].batteryStats 	account 	4
scalar Forest.networkOne[0].batteryStats 	"energy (mWs)" 	0
scalar Forest.networkOne[0].batteryStats 	"time (s)" 	0
scalar Forest.networkOne[0].batteryStats 	"account 4" 	0
scalar Forest.networkOne[1].nic.mac 	nbTxFrames 	0
scalar Forest.networkOne[1].nic.mac 	nbRxFrames 	0
scalar Forest.networkOne[1].nic.mac 	nbDroppedFrames 	0
scalar Forest.networkOne[1].nic.mac 	nbMissedAcks 	0
scalar Forest.networkOne[1].nic.mac 	nbRecvdAcks 	0
scalar Forest.networkOne[1].nic.mac 	nbTxAcks 	0
scalar Forest.networkOne[1].nic.mac 	nbDuplicates 	0
scalar Forest.networkOne[1].nic.mac 	meanBackoff 	0
scalar Forest.networkOne[1].nic.mac 	nbBackoffs 	0
scalar Forest.networkOne[1].nic.mac 	backoffDurations 	0
scalar Forest.networkOne[1].nic.phy 	nbFramesWithInterference 	0
scalar Forest.networkOne[1].nic.phy 	nbFramesWithoutInterference 	0
scalar Forest.networkOne[1].nic.phy 	nbFramesWithInterferencePartial 	0
scalar Forest.networkOne[1].nic.phy 	nbFramesWithoutInterferencePartial 	0
scalar Forest.networkOne[1].nic.phy 	nbFramesWithInterferenceDropped 	0
scalar Forest.networkOne[1].nic.phy 	nbFramesWithoutInterferenceDropped 	0
scalar Forest.networkOne[1].netwl 	nbDataPacketsForwarded 	0
scalar Forest.networkOne[1].netwl 	nbDataPacketsReceived 	0
scalar Forest.networkOne[1].netwl 	nbDataPacketsSent 	0
scalar Forest.networkOne[1].netwl 	nbDuplicatedFloodsReceived 	0
scalar Forest.networkOne[1].netwl 	nbFloodsSent 	0
scalar Forest.networkOne[1].netwl 	nbPureUnicastSent 	0
scalar Forest.networkOne[1].netwl 	nbRouteFloodsSent 	0
scalar Forest.networkOne[1].netwl 	nbRouteFloodsReceived 	0
scalar Forest.networkOne[1].netwl 	nbUnicastFloodForwarded 	0
scalar Forest.networkOne[1].netwl 	nbPureUnicastForwarded 	0
scalar Forest.networkOne[1].netwl 	nbGetRouteFailures 	0
scalar Forest.networkOne[1].netwl 	nbRoutesRecorded 	0
scalar Forest.networkOne[1].netwl 	meanNbHops 	-nan
scalar Forest.networkOne[1].tranl 	nbAggrPktReceived 	0
scalar Forest.networkOne[1].tranl 	"nbAggrPktSentDown " 	0
scalar Forest.networkOne[1].appl 	"activity duration" 	-1
attr unit  s
scalar Forest.networkOne[1].appl 	firstPacketGeneration 	-1
attr unit  s
scalar Forest.networkOne[1].appl 	lastPacketReception 	-2
attr unit  s
scalar Forest.networkOne[1].appl 	nbPacketsSent 	0
scalar Forest.networkOne[1].appl 	nbPacketsReceived 	0
statistic Forest.networkOne[1].appl 	latency
field count 0
field mean 0
field stddev -nan
field sum 0
field sqrsum 0
field min 0
field max 0
scalar Forest.networkOne[1].batteryStats 	nominal 	10800000
attr unit  mW-s
scalar Forest.networkOne[1].batteryStats 	total 	0.31568877585232
attr unit  mW-s
scalar Forest.networkOne[1].batteryStats 	lifetime 	-1
attr unit  s
scalar Forest.networkOne[1].batteryStats 	"Mean power consumption" 	6.299999854325e-05
attr unit  mW
scalar Forest.networkOne[1].batteryStats 	"num devices" 	1
scalar Forest.networkOne[1].batteryStats 	"physical layer" 	0
scalar Forest.networkOne[1].batteryStats 	"device total (mWs)" 	0.315688783152
scalar Forest.networkOne[1].batteryStats 	account 	0
scalar Forest.networkOne[1].batteryStats 	"energy (mWs)" 	0.315688783152
scalar Forest.networkOne[1].batteryStats 	"time (s)" 	5010.9330659048
scalar Forest.networkOne[1].batteryStats 	"account 0" 	0.315688783152
scalar Forest.networkOne[1].batteryStats 	account 	1
scalar Forest.networkOne[1].batteryStats 	"energy (mWs)" 	0
scalar Forest.networkOne[1].batteryStats 	"time (s)" 	0
scalar Forest.networkOne[1].batteryStats 	"account 1" 	0
scalar Forest.networkOne[1].batteryStats 	account 	2
scalar Forest.networkOne[1].batteryStats 	"energy (mWs)" 	0
scalar Forest.networkOne[1].batteryStats 	"time (s)" 	0
scalar Forest.networkOne[1].batteryStats 	"account 2" 	0
scalar Forest.networkOne[1].batteryStats 	account 	3
scalar Forest.networkOne[1].batteryStats 	"energy (mWs)" 	0
scalar Forest.networkOne[1].batteryStats 	"time (s)" 	0
scalar Forest.networkOne[1].batteryStats 	"account 3" 	0
scalar Forest.networkOne[1].batteryStats 	account 	4
scalar Forest.networkOne[1].batteryStats 	"energy (mWs)" 	0
scalar Forest.networkOne[1].batteryStats 	"time (s)" 	0
scalar Forest.networkOne[1].batteryStats 	"account 4" 	0
scalar Forest.networkOne[2].nic.mac 	nbTxFrames 	0
scalar Forest.networkOne[2].nic.mac 	nbRxFrames 	0
scalar Forest.networkOne[2].nic.mac 	nbDroppedFrames 	0
scalar Forest.networkOne[2].nic.mac 	nbMissedAcks 	0
scalar Forest.networkOne[2].nic.mac 	nbRecvdAcks 	0
scalar Forest.networkOne[2].nic.mac 	nbTxAcks 	0
scalar Forest.networkOne[2].nic.mac 	nbDuplicates 	0
scalar Forest.networkOne[2].nic.mac 	meanBackoff 	0
scalar Forest.networkOne[2].nic.mac 	nbBackoffs 	0
scalar Forest.networkOne[2].nic.mac 	backoffDurations 	0
scalar Forest.networkOne[2].nic.phy 	nbFramesWithInterference 	0
scalar Forest.networkOne[2].nic.phy 	nbFramesWithoutInterference 	0
scalar Forest.networkOne[2].nic.phy 	nbFramesWithInterferencePartial 	0
scalar Forest.networkOne[2].nic.phy 	nbFramesWithoutInterferencePartial 	0
scalar Forest.networkOne[2].nic.phy 	nbFramesWithInterferenceDropped 	0
scalar Forest.networkOne[2].nic.phy 	nbFramesWithoutInterferenceDropped 	0
scalar Forest.networkOne[2].netwl 	nbDataPacketsForwarded 	0
scalar Forest.networkOne[2].netwl 	nbDataPacketsReceived 	0
scalar Forest.networkOne[2].netwl 	nbDataPacketsSent 	0
scalar Forest.networkOne[2].netwl 	nbDuplicatedFloodsReceived 	0
scalar Forest.networkOne[2].netwl 	nbFloodsSent 	0
scalar Forest.networkOne[2].netwl 	nbPureUnicastSent 	0
scalar Forest.networkOne[2].netwl 	nbRouteFloodsSent 	0
scalar Forest.networkOne[2].netwl 	nbRouteFloodsReceived 	0
scalar Forest.networkOne[2].netwl 	nbUnicastFloodForwarded 	0
scalar Forest.networkOne[2].netwl 	nbPureUnicastForwarded 	0
scalar Forest.networkOne[2].netwl 	nbGetRouteFailures 	0
scalar Forest.networkOne[2].netwl 	nbRoutesRecorded 	0
scalar Forest.networkOne[2].netwl 	meanNbHops 	-nan
scalar Forest.networkOne[2].tranl 	nbAggrPktReceived 	0
scalar Forest.networkOne[2].tranl 	"nbAggrPktSentDown " 	0
scalar Forest.networkOne[2].appl 	"activity duration" 	-1
attr unit  s
scalar Forest.networkOne[2].appl 	firstPacketGeneration 	-1
attr unit  s
scalar Forest.networkOne[2].appl 	lastPacketReception 	-2
attr unit  s
scalar Forest.networkOne[2].appl 	nbPacketsSent 	0
scalar Forest.networkOne[2].appl 	nbPacketsReceived 	0
statistic Forest.networkOne[2].appl 	latency
field count 0
field mean 0
field stddev -nan
field sum 0
field sqrsum 0
field min 0
field max 0
scalar Forest.networkOne[2].batteryStats 	nominal 	10800000
attr unit  mW-s
scalar Forest.networkOne[2].batteryStats 	total 	0.31568877585232
attr unit  mW-s
scalar Forest.networkOne[2].batteryStats 	lifetime 	-1
attr unit  s
scalar Forest.networkOne[2].batteryStats 	"Mean power consumption" 	6.299999854325e-05
attr unit  mW
scalar Forest.networkOne[2].batteryStats 	"num devices" 	1
scalar Forest.networkOne[2].batteryStats 	"physical layer" 	0
scalar Forest.networkOne[2].batteryStats 	"device total (mWs)" 	0.315688783152
scalar Forest.networkOne[2].batteryStats 	account 	0
scalar Forest.networkOne[2].batteryStats 	"energy (mWs)" 	0.315688783152
scalar Forest.networkOne[2].batteryStats 	"time (s)" 	5010.9330659048
scalar Forest.networkOne[2].batteryStats 	"account 0" 	0.315688783152
scalar Forest.networkOne[2].batteryStats 	account 	1
scalar Forest.networkOne[2].batteryStats 	"energy (mWs)" 	0
scalar Forest.networkOne[2].batteryStats 	"time (s)" 	0
scalar Forest.networkOne[2].batteryStats 	"account 1" 	0
scalar Forest.networkOne[2].batteryStats 	account 	2
scalar Forest.networkOne[2].batteryStats 	"energy (mWs)" 	0
scalar Forest.networkOne[2].batteryStats 	"time (s)" 	0
scalar Forest.networkOne[2].batteryStats 	"account 2" 	0
scalar Forest.networkOne[2].batteryStats 	account 	3
scalar Forest.networkOne[2].batteryStats 	"energy (mWs)" 	0
scalar Forest.networkOne[2].batteryStats 	"time (s)" 	0
scalar Forest.networkOne[2].batteryStats 	"account 3" 	0
scalar Forest.networkOne[2].batteryStats 	account 	4
scalar Forest.networkOne[2].batteryStats 	"energy (mWs)" 	0
scalar Forest.networkOne[2].batteryStats 	"time (s)" 	0
scalar Forest.networkOne[2].batteryStats 	"account 4" 	0
scalar Forest.networkOne[3].nic.mac 	nbTxFrames 	0
scalar Forest.networkOne[3].nic.mac 	nbRxFrames 	0
scalar Forest.networkOne[3].nic.mac 	nbDroppedFrames 	0
scalar Forest.networkOne[3].nic.mac 	nbMissedAcks 	0
scalar Forest.networkOne[3].nic.mac 	nbRecvdAcks 	0
scalar Forest.networkOne[3].nic.mac 	nbTxAcks 	0
scalar Forest.networkOne[3].nic.mac 	nbDuplicates 	0
scalar Forest.networkOne[3].nic.mac 	meanBackoff 	0
scalar Forest.networkOne[3].nic.mac 	nbBackoffs 	0
scalar Forest.networkOne[3].nic.mac 	backoffDurations 	0
scalar Forest.networkOne[3].nic.phy 	nbFramesWithInterference 	0
scalar Forest.networkOne[3].nic.phy 	nbFramesWithoutInterference 	0
scalar Forest.networkOne[3].nic.phy 	nbFramesWithInterferencePartial 	0
scalar Forest.networkOne[3].nic.phy 	nbFramesWithoutInterferencePartial 	0
scalar Forest.networkOne[3].nic.phy 	nbFramesWithInterferenceDropped 	0
scalar Forest.networkOne[3].nic.phy 	nbFramesWithoutInterferenceDropped 	0
scalar Forest.networkOne[3].netwl 	nbDataPacketsForwarded 	0
scalar Forest.networkOne[3].netwl 	nbDataPacketsReceived 	0
scalar Forest.networkOne[3].netwl 	nbDataPacketsSent 	0
scalar Forest.networkOne[3].netwl 	nbDuplicatedFloodsReceived 	0
scalar Forest.networkOne[3].netwl 	nbFloodsSent 	0
scalar Forest.networkOne[3].netwl 	nbPureUnicastSent 	0
scalar Forest.networkOne[3].netwl 	nbRouteFloodsSent 	0
scalar Forest.networkOne[3].netwl 	nbRouteFloodsReceived 	0
scalar Forest.networkOne[3].netwl 	nbUnicastFloodForwarded 	0
scalar Forest.networkOne[3].netwl 	nbPureUnicastForwarded 	0
scalar Forest.networkOne[3].netwl 	nbGetRouteFailures 	0
scalar Forest.networkOne[3].netwl 	nbRoutesRecorded 	0
scalar Forest.networkOne[3].netwl 	meanNbHops 	-nan
scalar Forest.networkOne[3].tranl 	nbAggrPktReceived 	0
scalar Forest.networkOne[3].tranl 	"nbAggrPktSentDown " 	0
scalar Forest.networkOne[3].appl 	"activity duration" 	-1
attr unit  s
scalar Forest.networkOne[3].appl 	firstPacketGeneration 	-1
attr unit  s
scalar Forest.networkOne[3].appl 	lastPacketReception 	-2
attr unit  s
scalar Forest.networkOne[3].appl 	nbPacketsSent 	0
scalar Forest.networkOne[3].appl 	nbPacketsReceived 	0
statistic Forest.networkOne[3].appl 	latency
field count 0
field mean 0
field stddev -nan
field sum 0
field sqrsum 0
field min 0
field max 0
scalar Forest.networkOne[3].batteryStats 	nominal 	10800000
attr unit  mW-s
scalar Forest.networkOne[3].batteryStats 	total 	0.31568877585232
attr unit  mW-s
scalar Forest.networkOne[3].batteryStats 	lifetime 	-1
attr unit  s
scalar Forest.networkOne[3].batteryStats 	"Mean power consumption" 	6.299999854325e-05
attr unit  mW
scalar Forest.networkOne[3].batteryStats 	"num devices" 	1
scalar Forest.networkOne[3].batteryStats 	"physical layer" 	0
scalar Forest.networkOne[3].batteryStats 	"device total (mWs)" 	0.315688783152
scalar Forest.networkOne[3].batteryStats 	account 	0
scalar Forest.networkOne[3].batteryStats 	"energy (mWs)" 	0.315688783152
scalar Forest.networkOne[3].batteryStats 	"time (s)" 	5010.9330659048
scalar Forest.networkOne[3].batteryStats 	"account 0" 	0.315688783152
scalar Forest.networkOne[3].batteryStats 	account 	1
scalar Forest.networkOne[3].batteryStats 	"energy (mWs)" 	0
scalar Forest.networkOne[3].batteryStats 	"time (s)" 	0
scalar Forest.networkOne[3].batteryStats 	"account 1" 	0
scalar Forest.networkOne[3].batteryStats 	account 	2
scalar Forest.networkOne[3].batteryStats 	"energy (mWs)" 	0
scalar Forest.networkOne[3].batteryStats 	"time (s)" 	0
scalar Forest.networkOne[3].batteryStats 	"account 2" 	0
scalar Forest.networkOne[3].batteryStats 	account 	3
scalar Forest.networkOne[3].batteryStats 	"energy (mWs)" 	0
scalar Forest.networkOne[3].batteryStats 	"time (s)" 	0
scalar Forest.networkOne[3].batteryStats 	"account 3" 	0
scalar Forest.networkOne[3].batteryStats 	account 	4
scalar Forest.networkOne[3].batteryStats 	"energy (mWs)" 	0
scalar Forest.networkOne[3].batteryStats 	"time (s)" 	0
scalar Forest.networkOne[3].batteryStats 	"account 4" 	0
scalar Forest.networkOne[4].nic.mac 	nbTxFrames 	0
scalar Forest.networkOne[4].nic.mac 	nbRxFrames 	0
scalar Forest.networkOne[4].nic.mac 	nbDroppedFrames 	0
scalar Forest.networkOne[4].nic.mac 	nbMissedAcks 	0
scalar Forest.networkOne[4].nic.mac 	nbRecvdAcks 	0
scalar Forest.networkOne[4].nic.mac 	nbTxAcks 	0
scalar Forest.networkOne[4].nic.mac 	nbDuplicates 	0
scalar Forest.networkOne[4].nic.mac 	meanBackoff 	0
scalar Forest.networkOne[4].nic.mac 	nbBackoffs 	0
scalar Forest.networkOne[4].nic.mac 	backoffDurations 	0
scalar Forest.networkOne[4].nic.phy 	nbFramesWithInterference 	0
scalar Forest.networkOne[4].nic.phy 	nbFramesWithoutInterference 	0
scalar Forest.networkOne[4].nic.phy 	nbFramesWithInterferencePartial 	0
scalar Forest.networkOne[4].nic.phy 	nbFramesWithoutInterferencePartial 	0
scalar Forest.networkOne[4].nic.phy 	nbFramesWithInterferenceDropped 	0
scalar Forest.networkOne[4].nic.phy 	nbFramesWithoutInterferenceDropped 	0
scalar Forest.networkOne[4].netwl 	nbDataPacketsForwarded 	0
scalar Forest.networkOne[4].netwl 	nbDataPacketsReceived 	0
scalar Forest.networkOne[4].netwl 	nbDataPacketsSent 	0
scalar Forest.networkOne[4].netwl 	nbDuplicatedFloodsReceived 	0
scalar Forest.networkOne[4].netwl 	nbFloodsSent 	0
scalar Forest.networkOne[4].netwl 	nbPureUnicastSent 	0
scalar Forest.networkOne[4].netwl 	nbRouteFloodsSent 	0
scalar Forest.networkOne[4].netwl 	nbRouteFloodsReceived 	0
scalar Forest.networkOne[4].netwl 	nbUnicastFloodForwarded 	0
scalar Forest.networkOne[4].netwl 	nbPureUnicastForwarded 	0
scalar Forest.networkOne[4].netwl 	nbGetRouteFailures 	0
scalar Forest.networkOne[4].netwl 	nbRoutesRecorded 	0
scalar Forest.networkOne[4].netwl 	meanNbHops 	-nan
scalar Forest.networkOne[4].tranl 	nbAggrPktReceived 	0
scalar Forest.networkOne[4].tranl 	"nbAggrPktSentDown " 	0
scalar Forest.networkOne[4].appl 	"activity duration" 	-1
attr unit  s
scalar Forest.networkOne[4].appl 	firstPacketGeneration 	-1
attr unit  s
scalar Forest.networkOne[4].appl 	lastPacketReception 	-2
attr unit  s
scalar Forest.networkOne[4].appl 	nbPacketsSent 	0
scalar Forest.networkOne[4].appl 	nbPacketsReceived 	0
statistic Forest.networkOne[4].appl 	latency
field count 0
field mean 0
field stddev -nan
field sum 0
field sqrsum 0
field min 0
field max 0
scalar Forest.networkOne[4].batteryStats 	nominal 	10800000
attr unit  mW-s
scalar Forest.networkOne[4].batteryStats 	total 	0.31568877585232
attr unit  mW-s
scalar Forest.networkOne[4].batteryStats 	lifetime 	-1
attr unit  s
scalar Forest.networkOne[4].batteryStats 	"Mean power consumption" 	6.299999854325e-05
attr unit  mW
scalar Forest.networkOne[4].batteryStats 	"num devices" 	1
scalar Forest.networkOne[4].batteryStats 	"physical layer" 	0
scalar Forest.networkOne[4].batteryStats 	"device total (mWs)" 	0.315688783152
scalar Forest.networkOne[4].batteryStats 	account 	0
scalar Forest.networkOne[4].batteryStats 	"energy (mWs)" 	0.315688783152
scalar Forest.networkOne[4].batteryStats 	"time (s)" 	5010.9330659048
scalar Forest.networkOne[4].batteryStats 	"account 0" 	0.315688783152
scalar Forest.networkOne[4].batteryStats 	account 	1
scalar Forest.networkOne[4].batteryStats 	"energy (mWs)" 	0
scalar Forest.networkOne[4].batteryStats 	"time (s)" 	0
scalar Forest.networkOne[4].batteryStats 	"account 1" 	0
scalar Forest.networkOne[4].batteryStats 	account 	2
scalar Forest.networkOne[4].batteryStats 	"energy (mWs)" 	0
scalar Forest.networkOne[4].batteryStats 	"time (s)" 	0
scalar Forest.networkOne[4].batteryStats 	"account 2" 	0
scalar Forest.networkOne[4].batteryStats 	account 	3
scalar Forest.networkOne[4].batteryStats 	"energy (mWs)" 	0
scalar Forest.networkOne[4].batteryStats 	"time (s)" 	0
scalar Forest.networkOne[4].batteryStats 	"account 3" 	0
scalar Forest.networkOne[4].batteryStats 	account 	4
scalar Forest.networkOne[4].batteryStats 	"energy (mWs)" 	0
scalar Forest.networkOne[4].batteryStats 	"time (s)" 	0
scalar Forest.networkOne[4].batteryStats 	"account 4" 	0
scalar Forest.networkOne[5].nic.mac 	nbTxFrames 	0
scalar Forest.networkOne[5].nic.mac 	nbRxFrames 	0
scalar Forest.networkOne[5].nic.mac 	nbDroppedFrames 	0
scalar Forest.networkOne[5].nic.mac 	nbMissedAcks 	0
scalar Forest.networkOne[5].nic.mac 	nbRecvdAcks 	0
scalar Forest.networkOne[5].nic.mac 	nbTxAcks 	0
scalar Forest.networkOne[5].nic.mac 	nbDuplicates 	0
scalar Forest.networkOne[5].nic.mac 	meanBackoff 	0
scalar Forest.networkOne[5].nic.mac 	nbBackoffs 	0
scalar Forest.networkOne[5].nic.mac 	backoffDurations 	0
scalar Forest.networkOne[5].nic.phy 	nbFramesWithInterference 	0
scalar Forest.networkOne[5].nic.phy 	nbFramesWithoutInterference 	0
scalar Forest.networkOne[5].nic.phy 	nbFramesWithInterferencePartial 	0
scalar Forest.networkOne[5].nic.phy 	nbFramesWithoutInterferencePartial 	0
scalar Forest.networkOne[5].nic.phy 	nbFramesWithInterferenceDropped 	0
scalar Forest.networkOne[5].nic.phy 	nbFramesWithoutInterferenceDropped 	0
scalar Forest.networkOne[5].netwl 	nbDataPacketsForwarded 	0
scalar Forest.networkOne[5].netwl 	nbDataPacketsReceived 	0
scalar Forest.networkOne[5].netwl 	nbDataPacketsSent 	0
scalar Forest.networkOne[5].netwl 	nbDuplicatedFloodsReceived 	0
scalar Forest.networkOne[5].netwl 	nbFloodsSent 	0
scalar Forest.networkOne[5].netwl 	nbPureUnicastSent 	0
scalar Forest.networkOne[5].netwl 	nbRouteFloodsSent 	0
scalar Forest.networkOne[5].netwl 	nbRouteFloodsReceived 	0
scalar Forest.networkOne[5].netwl 	nbUnicastFloodForwarded 	0
scalar Forest.networkOne[5].netwl 	nbPureUnicastForwarded 	0
scalar Forest.networkOne[5].netwl 	nbGetRouteFailures 	0
scalar Forest.networkOne[5].netwl 	nbRoutesRecorded 	0
scalar Forest.networkOne[5].netwl 	meanNbHops 	-nan
scalar Forest.networkOne[5].tranl 	nbAggrPktReceived 	0
scalar Forest.networkOne[5].tranl 	"nbAggrPktSentDown " 	0
scalar Forest.networkOne[5].appl 	"activity duration" 	-1
attr unit  s
scalar Forest.networkOne[5].appl 	firstPacketGeneration 	-1
attr unit  s
scalar Forest.networkOne[5].appl 	lastPacketReception 	-2
attr unit  s
scalar Forest.networkOne[5].appl 	nbPacketsSent 	0
scalar Forest.networkOne[5].appl 	nbPacketsReceived 	0
statistic Forest.networkOne[5].appl 	latency
field count 0
field mean 0
field stddev -nan
field sum 0
field sqrsum 0
field min 0
field max 0
scalar Forest.networkOne[5].batteryStats 	nominal 	10800000
attr unit  mW-s
scalar Forest.networkOne[5].batteryStats 	total 	0.31568877585232
attr unit  mW-s
scalar Forest.networkOne[5].batteryStats 	lifetime 	-1
attr unit  s
scalar Forest.networkOne[5].batteryStats 	"Mean power consumption" 	6.299999854325e-05
attr unit  mW
scalar Forest.networkOne[5].batteryStats 	"num devices" 	1
scalar Forest.networkOne[5].batteryStats 	"physical layer" 	0
scalar Forest.networkOne[5].batteryStats 	"device total (mWs)" 	0.315688783152
scalar Forest.networkOne[5].batteryStats 	account 	0
scalar Forest.networkOne[5].batteryStats 	"energy (mWs)" 	0.315688783152
scalar Forest.networkOne[5].batteryStats 	"time (s)" 	5010.9330659048
scalar Forest.networkOne[5].batteryStats 	"account 0" 	0.315688783152
scalar Forest.networkOne[5].batteryStats 	account 	1
scalar Forest.networkOne[5].batteryStats 	"energy (mWs)" 	0
scalar Forest.networkOne[5].batteryStats 	"time (s)" 	0
scalar Forest.networkOne[5].batteryStats 	"account 1" 	0
scalar Forest.networkOne[5].batteryStats 	account 	2
scalar Forest.networkOne[5].batteryStats 	"energy (mWs)" 	0
scalar Forest.networkOne[5].batteryStats 	"time (s)" 	0
scalar Forest.networkOne[5].batteryStats 	"account 2" 	0
scalar Forest.networkOne[5].batteryStats 	account 	3
scalar Forest.networkOne[5].batteryStats 	"energy (mWs)" 	0
scalar Forest.networkOne[5].batteryStats 	"time (s)" 	0
scalar Forest.networkOne[5].batteryStats 	"account 3" 	0
scalar Forest.networkOne[5].batteryStats 	account 	4
scalar Forest.networkOne[5].batteryStats 	"energy (mWs)" 	0
scalar Forest.networkOne[5].batteryStats 	"time (s)" 	0
scalar Forest.networkOne[5].batteryStats 	"account 4" 	0
scalar Forest.networkOne[6].nic.mac 	nbTxFrames 	0
scalar Forest.networkOne[6].nic.mac 	nbRxFrames 	0
scalar Forest.networkOne[6].nic.mac 	nbDroppedFrames 	0
scalar Forest.networkOne[6].nic.mac 	nbMissedAcks 	0
scalar Forest.networkOne[6].nic.mac 	nbRecvdAcks 	0
scalar Forest.networkOne[6].nic.mac 	nbTxAcks 	0
scalar Forest.networkOne[6].nic.mac 	nbDuplicates 	0
scalar Forest.networkOne[6].nic.mac 	meanBackoff 	0
scalar Forest.networkOne[6].nic.mac 	nbBackoffs 	0
scalar Forest.networkOne[6].nic.mac 	backoffDurations 	0
scalar Forest.networkOne[6].nic.phy 	nbFramesWithInterference 	0
scalar Forest.networkOne[6].nic.phy 	nbFramesWithoutInterference 	0
scalar Forest.networkOne[6].nic.phy 	nbFramesWithInterferencePartial 	0
scalar Forest.networkOne[6].nic.phy 	nbFramesWithoutInterferencePartial 	0
scalar Forest.networkOne[6].nic.phy 	nbFramesWithInterferenceDropped 	0
scalar Forest.networkOne[6].nic.phy 	nbFramesWithoutInterferenceDropped 	0
scalar Forest.networkOne[6].netwl 	nbDataPacketsForwarded 	0
scalar Forest.networkOne[6].netwl 	nbDataPacketsReceived 	0
scalar Forest.networkOne[6].netwl 	nbDataPacketsSent 	0
scalar Forest.networkOne[6].netwl 	nbDuplicatedFloodsReceived 	0
scalar Forest.networkOne[6].netwl 	nbFloodsSent 	0
scalar Forest.networkOne[6].netwl 	nbPureUnicastSent 	0
scalar Forest.networkOne[6].netwl 	nbRouteFloodsSent 	0
scalar Forest.networkOne[6].netwl 	nbRouteFloodsReceived 	0
scalar Forest.networkOne[6].netwl 	nbUnicastFloodForwarded 	0
scalar Forest.networkOne[6].netwl 	nbPureUnicastForwarded 	0
scalar Forest.networkOne[6].netwl 	nbGetRouteFailures 	0
scalar Forest.networkOne[6].netwl 	nbRoutesRecorded 	0
scalar Forest.networkOne[6].netwl 	meanNbHops 	-nan
scalar Forest.networkOne[6].tranl 	nbAggrPktReceived 	0
scalar Forest.networkOne[6].tranl 	"nbAggrPktSentDown " 	0
scalar Forest.networkOne[6].appl 	"activity duration" 	-1
attr unit  s
scalar Forest.networkOne[6].appl 	firstPacketGeneration 	-1
attr unit  s
scalar Forest.networkOne[6].appl 	lastPacketReception 	-2
attr unit  s
scalar Forest.networkOne[6].appl 	nbPacketsSent 	0
scalar Forest.networkOne[6].appl 	nbPacketsReceived 	0
statistic Forest.networkOne[6].appl 	latency
field count 0
field mean 0
field stddev -nan
field sum 0
field sqrsum 0
field min 0
field max 0
scalar Forest.networkOne[6].batteryStats 	nominal 	10800000
attr unit  mW-s
scalar Forest.networkOne[6].batteryStats 	total 	0.31568877585232
attr unit  mW-s
scalar Forest.networkOne[6].batteryStats 	lifetime 	-1
attr unit  s
scalar Forest.networkOne[6].batteryStats 	"Mean power consumption" 	6.299999854325e-05
attr unit  mW
scalar Forest.networkOne[6].batteryStats 	"num devices" 	1
scalar Forest.networkOne[6].batteryStats 	"physical layer" 	0
scalar Forest.networkOne[6].batteryStats 	"device total (mWs)" 	0.315688783152
scalar Forest.networkOne[6].batteryStats 	account 	0
scalar Forest.networkOne[6].batteryStats 	"energy (mWs)" 	0.315688783152
scalar Forest.networkOne[6].batteryStats 	"time (s)" 	5010.9330659048
scalar Forest.networkOne[6].batteryStats 	"account 0" 	0.315688783152
scalar Forest.networkOne[6].batteryStats 	account 	1
scalar Forest.networkOne[6].batteryStats 	"energy (mWs)" 	0
scalar Forest.networkOne[6].batteryStats 	"time (s)" 	0
scalar Forest.networkOne[6].batteryStats 	"account 1" 	0
scalar Forest.networkOne[6].batteryStats 	account 	2
scalar Forest.networkOne[6].batteryStats 	"energy (mWs)" 	0
scalar Forest.networkOne[6].batteryStats 	"time (s)" 	0
scalar Forest.networkOne[6].batteryStats 	"account 2" 	0
scalar Forest.networkOne[6].batteryStats 	account 	3
scalar Forest.networkOne[6].batteryStats 	"energy (mWs)" 	0
scalar Forest.networkOne[6].batteryStats 	"time (s)" 	0
scalar Forest.networkOne[6].batteryStats 	"account 3" 	0
scalar Forest.networkOne[6].batteryStats 	account 	4
scalar Forest.networkOne[6].batteryStats 	"energy (mWs)" 	0
scalar Forest.networkOne[6].batteryStats 	"time (s)" 	0
scalar Forest.networkOne[6].batteryStats 	"account 4" 	0
scalar Forest.networkOne[7].nic.mac 	nbTxFrames 	0
scalar Forest.networkOne[7].nic.mac 	nbRxFrames 	0
scalar Forest.networkOne[7].nic.mac 	nbDroppedFrames 	0
scalar Forest.networkOne[7].nic.mac 	nbMissedAcks 	0
scalar Forest.networkOne[7].nic.mac 	nbRecvdAcks 	0
scalar Forest.networkOne[7].nic.mac 	nbTxAcks 	0
scalar Forest.networkOne[7].nic.mac 	nbDuplicates 	0
scalar Forest.networkOne[7].nic.mac 	meanBackoff 	0
scalar Forest.networkOne[7].nic.mac 	nbBackoffs 	0
scalar Forest.networkOne[7].nic.mac 	backoffDurations 	0
scalar Forest.networkOne[7].nic.phy 	nbFramesWithInterference 	0
scalar Forest.networkOne[7].nic.phy 	nbFramesWithoutInterference 	0
scalar Forest.networkOne[7].nic.phy 	nbFramesWithInterferencePartial 	0
scalar Forest.networkOne[7].nic.phy 	nbFramesWithoutInterferencePartial 	0
scalar Forest.networkOne[7].nic.phy 	nbFramesWithInterferenceDropped 	0
scalar Forest.networkOne[7].nic.phy 	nbFramesWithoutInterferenceDropped 	0
scalar Forest.networkOne[7].netwl 	nbDataPacketsForwarded 	0
scalar Forest.networkOne[7].netwl 	nbDataPacketsReceived 	0
scalar Forest.networkOne[7].netwl 	nbDataPacketsSent 	0
scalar Forest.networkOne[7].netwl 	nbDuplicatedFloodsReceived 	0
scalar Forest.networkOne[7].netwl 	nbFloodsSent 	0
scalar Forest.networkOne[7].netwl 	nbPureUnicastSent 	0
scalar Forest.networkOne[7].netwl 	nbRouteFloodsSent 	0
scalar Forest.networkOne[7].netwl 	nbRouteFloodsReceived 	0
scalar Forest.networkOne[7].netwl 	nbUnicastFloodForwarded 	0
scalar Forest.networkOne[7].netwl 	nbPureUnicastForwarded 	0
scalar Forest.networkOne[7].netwl 	nbGetRouteFailures 	0
scalar Forest.networkOne[7].netwl 	nbRoutesRecorded 	0
scalar Forest.networkOne[7].netwl 	meanNbHops 	-nan
scalar Forest.networkOne[7].tranl 	nbAggrPktReceived 	0
scalar Forest.networkOne[7].tranl 	"nbAggrPktSentDown " 	0
scalar Forest.networkOne[7].appl 	"activity duration" 	-1
attr unit  s
scalar Forest.networkOne[7].appl 	firstPacketGeneration 	-1
attr unit  s
scalar Forest.networkOne[7].appl 	lastPacketReception 	-2
attr unit  s
scalar Forest.networkOne[7].appl 	nbPacketsSent 	0
scalar Forest.networkOne[7].appl 	nbPacketsReceived 	0
statistic Forest.networkOne[7].appl 	latency
field count 0
field mean 0
field stddev -nan
field sum 0
field sqrsum 0
field min 0
field max 0
scalar Forest.networkOne[7].batteryStats 	nominal 	10800000
attr unit  mW-s
scalar Forest.networkOne[7].batteryStats 	total 	0.31568877585232
attr unit  mW-s
scalar Forest.networkOne[7].batteryStats 	lifetime 	-1
attr unit  s
scalar Forest.networkOne[7].batteryStats 	"Mean power consumption" 	6.299999854325e-05
attr unit  mW
scalar Forest.networkOne[7].batteryStats 	"num devices" 	1
scalar Forest.networkOne[7].batteryStats 	"physical layer" 	0
scalar Forest.networkOne[7].batteryStats 	"device total (mWs)" 	0.315688783152
scalar Forest.networkOne[7].batteryStats 	account 	0
scalar Forest.networkOne[7].batteryStats 	"energy (mWs)" 	0.315688783152
scalar Forest.networkOne[7].batteryStats 	"time (s)" 	5010.9330659048
scalar Forest.networkOne[7].batteryStats 	"account 0" 	0.315688783152
scalar Forest.networkOne[7].batteryStats 	account 	1
scalar Forest.networkOne[7].batteryStats 	"energy (mWs)" 	0
scalar Forest.networkOne[7].batteryStats 	"time (s)" 	0
scalar Forest.networkOne[7].batteryStats 	"account 1" 	0
scalar Forest.networkOne[7].batteryStats 	account 	2
scalar Forest.networkOne[7].batteryStats 	"energy (mWs)" 	0
scalar Forest.networkOne[7].batteryStats 	"time (s)" 	0
scalar Forest.networkOne[7].batteryStats 	"account 2" 	0
scalar Forest.networkOne[7].batteryStats 	account 	3
scalar Forest.networkOne[7].batteryStats 	"energy (mWs)" 	0
scalar Forest.networkOne[7].batteryStats 	"time (s)" 	0
scalar Forest.networkOne[7].batteryStats 	"account 3" 	0
scalar Forest.networkOne[7].batteryStats 	account 	4
scalar Forest.networkOne[7].batteryStats 	"energy (mWs)" 	0
scalar Forest.networkOne[7].batteryStats 	"time (s)" 	0
scalar Forest.networkOne[7].batteryStats 	"account 4" 	0
scalar Forest.networkOne[8].nic.mac 	nbTxFrames 	0
scalar Forest.networkOne[8].nic.mac 	nbRxFrames 	0
scalar Forest.networkOne[8].nic.mac 	nbDroppedFrames 	0
scalar Forest.networkOne[8].nic.mac 	nbMissedAcks 	0
scalar Forest.networkOne[8].nic.mac 	nbRecvdAcks 	0
scalar Forest.networkOne[8].nic.mac 	nbTxAcks 	0
scalar Forest.networkOne[8].nic.mac 	nbDuplicates 	0
scalar Forest.networkOne[8].nic.mac 	meanBackoff 	0
scalar Forest.networkOne[8].nic.mac 	nbBackoffs 	0
scalar Forest.networkOne[8].nic.mac 	backoffDurations 	0
scalar Forest.networkOne[8].nic.phy 	nbFramesWithInterference 	0
scalar Forest.networkOne[8].nic.phy 	nbFramesWithoutInterference 	0
scalar Forest.networkOne[8].nic.phy 	nbFramesWithInterferencePartial 	0
scalar Forest.networkOne[8].nic.phy 	nbFramesWithoutInterferencePartial 	0
scalar Forest.networkOne[8].nic.phy 	nbFramesWithInterferenceDropped 	0
scalar Forest.networkOne[8].nic.phy 	nbFramesWithoutInterferenceDropped 	0
scalar Forest.networkOne[8].netwl 	nbDataPacketsForwarded 	0
scalar Forest.networkOne[8].netwl 	nbDataPacketsReceived 	0
scalar Forest.networkOne[8].netwl 	nbDataPacketsSent 	0
scalar Forest.networkOne[8].netwl 	nbDuplicatedFloodsReceived 	0
scalar Forest.networkOne[8].netwl 	nbFloodsSent 	0
scalar Forest.networkOne[8].netwl 	nbPureUnicastSent 	0
scalar Forest.networkOne[8].netwl 	nbRouteFloodsSent 	0
scalar Forest.networkOne[8].netwl 	nbRouteFloodsReceived 	0
scalar Forest.networkOne[8].netwl 	nbUnicastFloodForwarded 	0
scalar Forest.networkOne[8].netwl 	nbPureUnicastForwarded 	0
scalar Forest.networkOne[8].netwl 	nbGetRouteFailures 	0
scalar Forest.networkOne[8].netwl 	nbRoutesRecorded 	0
scalar Forest.networkOne[8].netwl 	meanNbHops 	-nan
scalar Forest.networkOne[8].tranl 	nbAggrPktReceived 	0
scalar Forest.networkOne[8].tranl 	"nbAggrPktSentDown " 	0
scalar Forest.networkOne[8].appl 	"activity duration" 	-1
attr unit  s
scalar Forest.networkOne[8].appl 	firstPacketGeneration 	-1
attr unit  s
scalar Forest.networkOne[8].appl 	lastPacketReception 	-2
attr unit  s
scalar Forest.networkOne[8].appl 	nbPacketsSent 	0
scalar Forest.networkOne[8].appl 	nbPacketsReceived 	0
statistic Forest.networkOne[8].appl 	latency
field count 0
field mean 0
field stddev -nan
field sum 0
field sqrsum 0
field min 0
field max 0
scalar Forest.networkOne[8].batteryStats 	nominal 	10800000
attr unit  mW-s
scalar Forest.networkOne[8].batteryStats 	total 	0.31568877585232
attr unit  mW-s
scalar Forest.networkOne[8].batteryStats 	lifetime 	-1
attr unit  s
scalar Forest.networkOne[8].batteryStats 	"Mean power consumption" 	6.299999854325e-05
attr unit  mW
scalar Forest.networkOne[8].batteryStats 	"num devices" 	1
scalar Forest.networkOne[8].batteryStats 	"physical layer" 	0
scalar Forest.networkOne[8].batteryStats 	"device total (mWs)" 	0.315688783152
scalar Forest.networkOne[8].batteryStats 	account 	0
scalar Forest.networkOne[8].batteryStats 	"energy (mWs)" 	0.315688783152
scalar Forest.networkOne[8].batteryStats 	"time (s)" 	5010.9330659048
scalar Forest.networkOne[8].batteryStats 	"account 0" 	0.315688783152
scalar Forest.networkOne[8].batteryStats 	account 	1
scalar Forest.networkOne[8].batteryStats 	"energy (mWs)" 	0
scalar Forest.networkOne[8].batteryStats 	"time (s)" 	0
scalar Forest.networkOne[8].batteryStats 	"account 1" 	0
scalar Forest.networkOne[8].batteryStats 	account 	2
scalar Forest.networkOne[8].batteryStats 	"energy (mWs)" 	0
scalar Forest.networkOne[8].batteryStats 	"time (s)" 	0
scalar Forest.networkOne[8].batteryStats 	"account 2" 	0
scalar Forest.networkOne[8].batteryStats 	account 	3
scalar Forest.networkOne[8].batteryStats 	"energy (mWs)" 	0
scalar Forest.networkOne[8].batteryStats 	"time (s)" 	0
scalar Forest.networkOne[8].batteryStats 	"account 3" 	0
scalar Forest.networkOne[8].batteryStats 	account 	4
scalar Forest.networkOne[8].batteryStats 	"energy (mWs)" 	0
scalar Forest.networkOne[8].batteryStats 	"time (s)" 	0
scalar Forest.networkOne[8].batteryStats 	"account 4" 	0
scalar Forest.networkOne[9].nic.mac 	nbTxFrames 	0
scalar Forest.networkOne[9].nic.mac 	nbRxFrames 	0
scalar Forest.networkOne[9].nic.mac 	nbDroppedFrames 	0
scalar Forest.networkOne[9].nic.mac 	nbMissedAcks 	0
scalar Forest.networkOne[9].nic.mac 	nbRecvdAcks 	0
scalar Forest.networkOne[9].nic.mac 	nbTxAcks 	0
scalar Forest.networkOne[9].nic.mac 	nbDuplicates 	0
scalar Forest.networkOne[9].nic.mac 	meanBackoff 	0
scalar Forest.networkOne[9].nic.mac 	nbBackoffs 	0
scalar Forest.networkOne[9].nic.mac 	backoffDurations 	0
scalar Forest.networkOne[9].nic.phy 	nbFramesWithInterference 	0
scalar Forest.networkOne[9].nic.phy 	nbFramesWithoutInterference 	0
scalar Forest.networkOne[9].nic.phy 	nbFramesWithInterferencePartial 	0
scalar Forest.networkOne[9].nic.phy 	nbFramesWithoutInterferencePartial 	0
scalar Forest.networkOne[9].nic.phy 	nbFramesWithInterferenceDropped 	0
scalar Forest.networkOne[9].nic.phy 	nbFramesWithoutInterferenceDropped 	0
scalar Forest.networkOne[9].netwl 	nbDataPacketsForwarded 	0
scalar Forest.networkOne[9].netwl 	nbDataPacketsReceived 	0
scalar Forest.networkOne[9].netwl 	nbDataPacketsSent 	0
scalar Forest.networkOne[9].netwl 	nbDuplicatedFloodsReceived 	0
scalar Forest.networkOne[9].netwl 	nbFloodsSent 	0
scalar Forest.networkOne[9].netwl 	nbPureUnicastSent 	0
scalar Forest.networkOne[9].netwl 	nbRouteFloodsSent 	0
scalar Forest.networkOne[9].netwl 	nbRouteFloodsReceived 	0
scalar Forest.networkOne[9].netwl 	nbUnicastFloodForwarded 	0
scalar Forest.networkOne[9].netwl 	nbPureUnicastForwarded 	0
scalar Forest.networkOne[9].netwl 	nbGetRouteFailures 	0
scalar Forest.networkOne[9].netwl 	nbRoutesRecorded 	0
scalar Forest.networkOne[9].netwl 	meanNbHops 	-nan
scalar Forest.networkOne[9].tranl 	nbAggrPktReceived 	0
scalar Forest.networkOne[9].tranl 	"nbAggrPktSentDown " 	0
scalar Forest.networkOne[9].appl 	"activity duration" 	-1
attr unit  s
scalar Forest.networkOne[9].appl 	firstPacketGeneration 	-1
attr unit  s
scalar Forest.networkOne[9].appl 	lastPacketReception 	-2
attr unit  s
scalar Forest.networkOne[9].appl 	nbPacketsSent 	0
scalar Forest.networkOne[9].appl 	nbPacketsReceived 	0
statistic Forest.networkOne[9].appl 	latency
field count 0
field mean 0
field stddev -nan
field sum 0
field sqrsum 0
field min 0
field max 0
scalar Forest.networkOne[9].batteryStats 	nominal 	10800000
attr unit  mW-s
scalar Forest.networkOne[9].batteryStats 	total 	0.31568877585232
attr unit  mW-s
scalar Forest.networkOne[9].batteryStats 	lifetime 	-1
attr unit  s
scalar Forest.networkOne[9].batteryStats 	"Mean power consumption" 	6.299999854325e-05
attr unit  mW
scalar Forest.networkOne[9].batteryStats 	"num devices" 	1
scalar Forest.networkOne[9].batteryStats 	"physical layer" 	0
scalar Forest.networkOne[9].batteryStats 	"device total (mWs)" 	0.315688783152
scalar Forest.networkOne[9].batteryStats 	account 	0
scalar Forest.networkOne[9].batteryStats 	"energy (mWs)" 	0.315688783152
scalar Forest.networkOne[9].batteryStats 	"time (s)" 	5010.9330659048
scalar Forest.networkOne[9].batteryStats 	"account 0" 	0.315688783152
scalar Forest.networkOne[9].batteryStats 	account 	1
scalar Forest.networkOne[9].batteryStats 	"energy (mWs)" 	0
scalar Forest.networkOne[9].batteryStats 	"time (s)" 	0
scalar Forest.networkOne[9].batteryStats 	"account 1" 	0
scalar Forest.networkOne[9].batteryStats 	account 	2
scalar Forest.networkOne[9].batteryStats 	"energy (mWs)" 	0
scalar Forest.networkOne[9].batteryStats 	"time (s)" 	0
scalar Forest.networkOne[9].batteryStats 	"account 2" 	0
scalar Forest.networkOne[9].batteryStats 	account 	3
scalar Forest.networkOne[9].batteryStats 	"energy (mWs)" 	0
scalar Forest.networkOne[9].batteryStats 	"time (s)" 	0
scalar Forest.networkOne[9].batteryStats 	"account 3" 	0
scalar Forest.networkOne[9].batteryStats 	account 	4
scalar Forest.networkOne[9].batteryStats 	"energy (mWs)" 	0
scalar Forest.networkOne[9].batteryStats 	"time (s)" 	0
scalar Forest.networkOne[9].batteryStats 	"account 4" 	0
scalar Forest.networkOne[10].nic.mac 	nbTxFrames 	11187
scalar Forest.networkOne[10].nic.mac 	nbRxFrames 	6151
scalar Forest.networkOne[10].nic.mac 	nbDroppedFrames 	0
scalar Forest.networkOne[10].nic.mac 	nbMissedAcks 	0
scalar Forest.networkOne[10].nic.mac 	nbRecvdAcks 	0
scalar Forest.networkOne[10].nic.mac 	nbTxAcks 	0
scalar Forest.networkOne[10].nic.mac 	nbDuplicates 	0
scalar Forest.networkOne[10].nic.mac 	meanBackoff 	0.0011339424942671
scalar Forest.networkOne[10].nic.mac 	nbBackoffs 	11338
scalar Forest.networkOne[10].nic.mac 	backoffDurations 	12.85664
scalar Forest.networkOne[10].nic.phy 	nbFramesWithInterference 	46
scalar Forest.networkOne[10].nic.phy 	nbFramesWithoutInterference 	30541
scalar Forest.networkOne[10].nic.phy 	nbFramesWithInterferencePartial 	13
scalar Forest.networkOne[10].nic.phy 	nbFramesWithoutInterferencePartial 	308
scalar Forest.networkOne[10].nic.phy 	nbFramesWithInterferenceDropped 	16
scalar Forest.networkOne[10].nic.phy 	nbFramesWithoutInterferenceDropped 	4621
scalar Forest.networkOne[10].netwl 	nbDataPacketsForwarded 	6187
scalar Forest.networkOne[10].netwl 	nbDataPacketsReceived 	0
scalar Forest.networkOne[10].netwl 	nbDataPacketsSent 	5000
scalar Forest.networkOne[10].netwl 	nbDuplicatedFloodsReceived 	15
scalar Forest.networkOne[10].netwl 	nbFloodsSent 	0
scalar Forest.networkOne[10].netwl 	nbPureUnicastSent 	5000
scalar Forest.networkOne[10].netwl 	nbRouteFloodsSent 	0
scalar Forest.networkOne[10].netwl 	nbRouteFloodsReceived 	5
scalar Forest.networkOne[10].netwl 	nbUnicastFloodForwarded 	0
scalar Forest.networkOne[10].netwl 	nbPureUnicastForwarded 	6182
scalar Forest.networkOne[10].netwl 	nbGetRouteFailures 	0
scalar Forest.networkOne[10].netwl 	nbRoutesRecorded 	1
scalar Forest.networkOne[10].netwl 	meanNbHops 	-nan
scalar Forest.networkOne[10].tranl 	nbAggrPktReceived 	0
scalar Forest.networkOne[10].tranl 	"nbAggrPktSentDown " 	0
scalar Forest.networkOne[10].appl 	"activity duration" 	-1
attr unit  s
scalar Forest.networkOne[10].appl 	firstPacketGeneration 	-1
attr unit  s
scalar Forest.networkOne[10].appl 	lastPacketReception 	-2
attr unit  s
scalar Forest.networkOne[10].appl 	nbPacketsSent 	5000
scalar Forest.networkOne[10].appl 	nbPacketsReceived 	0
statistic Forest.networkOne[10].appl 	latency
field count 0
field mean 0
field stddev -nan
field sum 0
field sqrsum 0
field min 0
field max 0
scalar Forest.networkOne[10].batteryStats 	nominal 	10800000
attr unit  mW-s
scalar Forest.networkOne[10].batteryStats 	total 	282564.00261768
attr unit  mW-s
scalar Forest.networkOne[10].batteryStats 	lifetime 	-1
attr unit  s
scalar Forest.networkOne[10].batteryStats 	"Mean power consumption" 	56.389498502842
attr unit  mW
scalar Forest.networkOne[10].batteryStats 	"num devices" 	1
scalar Forest.networkOne[10].batteryStats 	"physical layer" 	0
scalar Forest.networkOne[10].batteryStats 	"device total (mWs)" 	282564.00261297
scalar Forest.networkOne[10].batteryStats 	account 	0
scalar Forest.networkOne[10].batteryStats 	"energy (mWs)" 	0
scalar Forest.networkOne[10].batteryStats 	"time (s)" 	0
scalar Forest.networkOne[10].batteryStats 	"account 0" 	0
scalar Forest.networkOne[10].batteryStats 	account 	1
scalar Forest.networkOne[10].batteryStats 	"energy (mWs)" 	281667.69897777
scalar Forest.networkOne[10].batteryStats 	"time (s)" 	4994.1081379048
scalar Forest.networkOne[10].batteryStats 	"account 1" 	281667.69897777
scalar Forest.networkOne[10].batteryStats 	account 	2
scalar Forest.networkOne[10].batteryStats 	"energy (mWs)" 	654.02006399994
scalar Forest.networkOne[10].batteryStats 	"time (s)" 	12.52912
scalar Forest.networkOne[10].batteryStats 	"account 2" 	654.02006399994
scalar Forest.networkOne[10].batteryStats 	account 	3
scalar Forest.networkOne[10].batteryStats 	"energy (mWs)" 	242.28357120012
scalar Forest.networkOne[10].batteryStats 	"time (s)" 	4.295808
scalar Forest.networkOne[10].batteryStats 	"account 3" 	242.28357120012
scalar Forest.networkOne[10].batteryStats 	account 	4
scalar Forest.networkOne[10].batteryStats 	"energy (mWs)" 	0
scalar Forest.networkOne[10].batteryStats 	"time (s)" 	0
scalar Forest.networkOne[10].batteryStats 	"account 4" 	0
scalar Forest.networkOne[11].nic.mac 	nbTxFrames 	0
scalar Forest.networkOne[11].nic.mac 	nbRxFrames 	0
scalar Forest.networkOne[11].nic.mac 	nbDroppedFrames 	0
scalar Forest.networkOne[11].nic.mac 	nbMissedAcks 	0
scalar Forest.networkOne[11].nic.mac 	nbRecvdAcks 	0
scalar Forest.networkOne[11].nic.mac 	nbTxAcks 	0
scalar Forest.networkOne[11].nic.mac 	nbDuplicates 	0
scalar Forest.networkOne[11].nic.mac 	meanBackoff 	0
scalar Forest.networkOne[11].nic.mac 	nbBackoffs 	0
scalar Forest.networkOne[11].nic.mac 	backoffDurations 	0
scalar Forest.networkOne[11].nic.phy 	nbFramesWithInterference 	0
scalar Forest.networkOne[11].nic.phy 	nbFramesWithoutInterference 	0
scalar Forest.networkOne[11].nic.phy 	nbFramesWithInterferencePartial 	0
scalar Forest.networkOne[11].nic.phy 	nbFramesWithoutInterferencePartial 	0
scalar Forest.networkOne[11].nic.phy 	nbFramesWithInterferenceDropped 	0
scalar Forest.networkOne[11].nic.phy 	nbFramesWithoutInterferenceDropped 	0
scalar Forest.networkOne[11].netwl 	nbDataPacketsForwarded 	0
scalar Forest.networkOne[11].netwl 	nbDataPacketsReceived 	0
scalar Forest.networkOne[11].netwl 	nbDataPacketsSent 	0
scalar Forest.networkOne[11].netwl 	nbDuplicatedFloodsReceived 	0
scalar Forest.networkOne[11].netwl 	nbFloodsSent 	0
scalar Forest.networkOne[11].netwl 	nbPureUnicastSent 	0
scalar Forest.networkOne[11].netwl 	nbRouteFloodsSent 	0
scalar Forest.networkOne[11].netwl 	nbRouteFloodsReceived 	0
scalar Forest.networkOne[11].netwl 	nbUnicastFloodForwarded 	0
scalar Forest.networkOne[11].netwl 	nbPureUnicastForwarded 	0
scalar Forest.networkOne[11].netwl 	nbGetRouteFailures 	0
scalar Forest.networkOne[11].netwl 	nbRoutesRecorded 	0
scalar Forest.networkOne[11].netwl 	meanNbHops 	-nan
scalar Forest.networkOne[11].tranl 	nbAggrPktReceived 	0
scalar Forest.networkOne[11].tranl 	"nbAggrPktSentDown " 	0
scalar Forest.networkOne[11].appl 	"activity duration" 	-1
attr unit  s
scalar Forest.networkOne[11].appl 	firstPacketGeneration 	-1
attr unit  s
scalar Forest.networkOne[11].appl 	lastPacketReception 	-2
attr unit  s
scalar Forest.networkOne[11].appl 	nbPacketsSent 	0
scalar Forest.networkOne[11].appl 	nbPacketsReceived 	0
statistic Forest.networkOne[11].appl 	latency
field count 0
field mean 0
field stddev -nan
field sum 0
field sqrsum 0
field min 0
field max 0
scalar Forest.networkOne[11].batteryStats 	nominal 	10800000
attr unit  mW-s
scalar Forest.networkOne[11].batteryStats 	total 	0.31568877585232
attr unit  mW-s
scalar Forest.networkOne[11].batteryStats 	lifetime 	-1
attr unit  s
scalar Forest.networkOne[11].batteryStats 	"Mean power consumption" 	6.299999854325e-05
attr unit  mW
scalar Forest.networkOne[11].batteryStats 	"num devices" 	1
scalar Forest.networkOne[11].batteryStats 	"physical layer" 	0
scalar Forest.networkOne[11].batteryStats 	"device total (mWs)" 	0.315688783152
scalar Forest.networkOne[11].batteryStats 	account 	0
scalar Forest.networkOne[11].batteryStats 	"energy (mWs)" 	0.315688783152
scalar Forest.networkOne[11].batteryStats 	"time (s)" 	5010.9330659048
scalar Forest.networkOne[11].batteryStats 	"account 0" 	0.315688783152
scalar Forest.networkOne[11].batteryStats 	account 	1
scalar Forest.networkOne[11].batteryStats 	"energy (mWs)" 	0
scalar Forest.networkOne[11].batteryStats 	"time (s)" 	0
scalar Forest.networkOne[11].batteryStats 	"account 1" 	0
scalar Forest.networkOne[11].batteryStats 	account 	2
scalar Forest.networkOne[11].batteryStats 	"energy (mWs)" 	0
scalar Forest.networkOne[11].batteryStats 	"time (s)" 	0
scalar Forest.networkOne[11].batteryStats 	"account 2" 	0
scalar Forest.networkOne[11].batteryStats 	account 	3
scalar Forest.networkOne[11].batteryStats 	"energy (mWs)" 	0
scalar Forest.networkOne[11].batteryStats 	"time (s)" 	0
scalar Forest.networkOne[11].batteryStats 	"account 3" 	0
scalar Forest.networkOne[11].batteryStats 	account 	4
scalar Forest.networkOne[11].batteryStats 	"energy (mWs)" 	0
scalar Forest.networkOne[11].batteryStats 	"time (s)" 	0
scalar Forest.networkOne[11].batteryStats 	"account 4" 	0
scalar Forest.networkOne[12].nic.mac 	nbTxFrames 	0
scalar Forest.networkOne[12].nic.mac 	nbRxFrames 	0
scalar Forest.networkOne[12].nic.mac 	nbDroppedFrames 	0
scalar Forest.networkOne[12].nic.mac 	nbMissedAcks 	0
scalar Forest.networkOne[12].nic.mac 	nbRecvdAcks 	0
scalar Forest.networkOne[12].nic.mac 	nbTxAcks 	0
scalar Forest.networkOne[12].nic.mac 	nbDuplicates 	0
scalar Forest.networkOne[12].nic.mac 	meanBackoff 	0
scalar Forest.networkOne[12].nic.mac 	nbBackoffs 	0
scalar Forest.networkOne[12].nic.mac 	backoffDurations 	0
scalar Forest.networkOne[12].nic.phy 	nbFramesWithInterference 	0
scalar Forest.networkOne[12].nic.phy 	nbFramesWithoutInterference 	0
scalar Forest.networkOne[12].nic.phy 	nbFramesWithInterferencePartial 	0
scalar Forest.networkOne[12].nic.phy 	nbFramesWithoutInterferencePartial 	0
scalar Forest.networkOne[12].nic.phy 	nbFramesWithInterferenceDropped 	0
scalar Forest.networkOne[12].nic.phy 	nbFramesWithoutInterferenceDropped 	0
scalar Forest.networkOne[12].netwl 	nbDataPacketsForwarded 	0
scalar Forest.networkOne[12].netwl 	nbDataPacketsReceived 	0
scalar Forest.networkOne[12].netwl 	nbDataPacketsSent 	0
scalar Forest.networkOne[12].netwl 	nbDuplicatedFloodsReceived 	0
scalar Forest.networkOne[12].netwl 	nbFloodsSent 	0
scalar Forest.networkOne[12].netwl 	nbPureUnicastSent 	0
scalar Forest.networkOne[12].netwl 	nbRouteFloodsSent 	0
scalar Forest.networkOne[12].netwl 	nbRouteFloodsReceived 	0
scalar Forest.networkOne[12].netwl 	nbUnicastFloodForwarded 	0
scalar Forest.networkOne[12].netwl 	nbPureUnicastForwarded 	0
scalar Forest.networkOne[12].netwl 	nbGetRouteFailures 	0
scalar Forest.networkOne[12].netwl 	nbRoutesRecorded 	0
scalar Forest.networkOne[12].netwl 	meanNbHops 	-nan
scalar Forest.networkOne[12].tranl 	nbAggrPktReceived 	0
scalar Forest.networkOne[12].tranl 	"nbAggrPktSentDown " 	0
scalar Forest.networkOne[12].appl 	"activity duration" 	-1
attr unit  s
scalar Forest.networkOne[12].appl 	firstPacketGeneration 	-1
attr unit  s
scalar Forest.networkOne[12].appl 	lastPacketReception 	-2
attr unit  s
scalar Forest.networkOne[12].appl 	nbPacketsSent 	0
scalar Forest.networkOne[12].appl 	nbPacketsReceived 	0
statistic Forest.networkOne[12].appl 	latency
field count 0
field mean 0
field stddev -nan
field sum 0
field sqrsum 0
field min 0
field max 0
scalar Forest.networkOne[12].batteryStats 	nominal 	10800000
attr unit  mW-s
scalar Forest.networkOne[12].batteryStats 	total 	0.31568877585232
attr unit  mW-s
scalar Forest.networkOne[12].batteryStats 	lifetime 	-1
attr unit  s
scalar Forest.networkOne[12].batteryStats 	"Mean power consumption" 	6.299999854325e-05
attr unit  mW
scalar Forest.networkOne[12].batteryStats 	"num devices" 	1
scalar Forest.networkOne[12].batteryStats 	"physical layer" 	0
scalar Forest.networkOne[12].batteryStats 	"device total (mWs)" 	0.315688783152
scalar Forest.networkOne[12].batteryStats 	account 	0
scalar Forest.networkOne[12].batteryStats 	"energy (mWs)" 	0.315688783152
scalar Forest.networkOne[12].batteryStats 	"time (s)" 	5010.9330659048
scalar Forest.networkOne[12].batteryStats 	"account 0" 	0.315688783152
scalar Forest.networkOne[12].batteryStats 	account 	1
scalar Forest.networkOne[12].batteryStats 	"energy (mWs)" 	0
scalar Forest.networkOne[12].batteryStats 	"time (s)" 	0
scalar Forest.networkOne[12].batteryStats 	"account 1" 	0
scalar Forest.networkOne[12].batteryStats 	account 	2
scalar Forest.networkOne[12].batteryStats 	"energy (mWs)" 	0
scalar Forest.networkOne[12].batteryStats 	"time (s)" 	0
scalar Forest.networkOne[12].batteryStats 	"account 2" 	0
scalar Forest.networkOne[12].batteryStats 	account 	3
scalar Forest.networkOne[12].batteryStats 	"energy (mWs)" 	0
scalar Forest.networkOne[12].batteryStats 	"time (s)" 	0
scalar Forest.networkOne[12].batteryStats 	"account 3" 	0
scalar Forest.networkOne[12].batteryStats 	account 	4
scalar Forest.networkOne[12].batteryStats 	"energy (mWs)" 	0
scalar Forest.networkOne[12].batteryStats 	"time (s)" 	0
scalar Forest.networkOne[12].batteryStats 	"account 4" 	0
scalar Forest.networkOne[13].nic.mac 	nbTxFrames 	5005
scalar Forest.networkOne[13].nic.mac 	nbRxFrames 	19
scalar Forest.networkOne[13].nic.mac 	nbDroppedFrames 	0
scalar Forest.networkOne[13].nic.mac 	nbMissedAcks 	0
scalar Forest.networkOne[13].nic.mac 	nbRecvdAcks 	0
scalar Forest.networkOne[13].nic.mac 	nbTxAcks 	0
scalar Forest.networkOne[13].nic.mac 	nbDuplicates 	0
scalar Forest.networkOne[13].nic.mac 	meanBackoff 	0.0011661218890849
scalar Forest.networkOne[13].nic.mac 	nbBackoffs 	5103
scalar Forest.networkOne[13].nic.mac 	backoffDurations 	5.95072
scalar Forest.networkOne[13].nic.phy 	nbFramesWithInterference 	60
scalar Forest.networkOne[13].nic.phy 	nbFramesWithoutInterference 	45293
scalar Forest.networkOne[13].nic.phy 	nbFramesWithInterferencePartial 	23
scalar Forest.networkOne[13].nic.phy 	nbFramesWithoutInterferencePartial 	259
scalar Forest.networkOne[13].nic.phy 	nbFramesWithInterferenceDropped 	17
scalar Forest.networkOne[13].nic.phy 	nbFramesWithoutInterferenceDropped 	4190
scalar Forest.networkOne[13].netwl 	nbDataPacketsForwarded 	5
scalar Forest.networkOne[13].netwl 	nbDataPacketsReceived 	0
scalar Forest.networkOne[13].netwl 	nbDataPacketsSent 	5000
scalar Forest.networkOne[13].netwl 	nbDuplicatedFloodsReceived 	19
scalar Forest.networkOne[13].netwl 	nbFloodsSent 	0
scalar Forest.networkOne[13].netwl 	nbPureUnicastSent 	5000
scalar Forest.networkOne[13].netwl 	nbRouteFloodsSent 	0
scalar Forest.networkOne[13].netwl 	nbRouteFloodsReceived 	5
scalar Forest.networkOne[13].netwl 	nbUnicastFloodForwarded 	0
scalar Forest.networkOne[13].netwl 	nbPureUnicastForwarded 	0
scalar Forest.networkOne[13].netwl 	nbGetRouteFailures 	0
scalar Forest.networkOne[13].netwl 	nbRoutesRecorded 	1
scalar Forest.networkOne[13].netwl 	meanNbHops 	-nan
scalar Forest.networkOne[13].tranl 	nbAggrPktReceived 	0
scalar Forest.networkOne[13].tranl 	"nbAggrPktSentDown " 	0
scalar Forest.networkOne[13].appl 	"activity duration" 	-1
attr unit  s
scalar Forest.networkOne[13].appl 	firstPacketGeneration 	-1
attr unit  s
scalar Forest.networkOne[13].appl 	lastPacketReception 	-2
attr unit  s
scalar Forest.networkOne[13].appl 	nbPacketsSent 	5000
scalar Forest.networkOne[13].appl 	nbPacketsReceived 	0
statistic Forest.networkOne[13].appl 	latency
field count 0
field mean 0
field stddev -nan
field sum 0
field sqrsum 0
field min 0
field max 0
scalar Forest.networkOne[13].batteryStats 	nominal 	10800000
attr unit  mW-s
scalar Forest.networkOne[13].batteryStats 	total 	282593.08274311
attr unit  mW-s
scalar Forest.networkOne[13].batteryStats 	lifetime 	-1
attr unit  s
scalar Forest.networkOne[13].batteryStats 	"Mean power consumption" 	56.395301838279
attr unit  mW
scalar Forest.networkOne[13].batteryStats 	"num devices" 	1
scalar Forest.networkOne[13].batteryStats 	"physical layer" 	0
scalar Forest.networkOne[13].batteryStats 	"device total (mWs)" 	282593.082741
scalar Forest.networkOne[13].batteryStats 	account 	0
scalar Forest.networkOne[13].batteryStats 	"energy (mWs)" 	0
scalar Forest.networkOne[13].batteryStats 	"time (s)" 	0
scalar Forest.networkOne[13].batteryStats 	"account 0" 	0
scalar Forest.networkOne[13].batteryStats 	account 	1
scalar Forest.networkOne[13].batteryStats 	"energy (mWs)" 	282192.090837
scalar Forest.networkOne[13].batteryStats 	"time (s)" 	5003.4058659048
scalar Forest.networkOne[13].batteryStats 	"account 1" 	282192.090837
scalar Forest.networkOne[13].batteryStats 	account 	2
scalar Forest.networkOne[13].batteryStats 	"energy (mWs)" 	292.59561599998
scalar Forest.networkOne[13].batteryStats 	"time (s)" 	5.60528
scalar Forest.networkOne[13].batteryStats 	"account 2" 	292.59561599998
scalar Forest.networkOne[13].batteryStats 	account 	3
scalar Forest.networkOne[13].batteryStats 	"energy (mWs)" 	108.39628799999
scalar Forest.networkOne[13].batteryStats 	"time (s)" 	1.92192
scalar Forest.networkOne[13].batteryStats 	"account 3" 	108.39628799999
scalar Forest.networkOne[13].batteryStats 	account 	4
scalar Forest.networkOne[13].batteryStats 	"energy (mWs)" 	0
scalar Forest.networkOne[13].batteryStats 	"time (s)" 	0
scalar Forest.networkOne[13].batteryStats 	"account 4" 	0
scalar Forest.networkOne[14].nic.mac 	nbTxFrames 	0
scalar Forest.networkOne[14].nic.mac 	nbRxFrames 	0
scalar Forest.networkOne[14].nic.mac 	nbDroppedFrames 	0
scalar Forest.networkOne[14].nic.mac 	nbMissedAcks 	0
scalar Forest.networkOne[14].nic.mac 	nbRecvdAcks 	0
scalar Forest.networkOne[14].nic.mac 	nbTxAcks 	0
scalar Forest.networkOne[14].nic.mac 	nbDuplicates 	0
scalar Forest.networkOne[14].nic.mac 	meanBackoff 	0
scalar Forest.networkOne[14].nic.mac 	nbBackoffs 	0
scalar Forest.networkOne[14].nic.mac 	backoffDurations 	0
scalar Forest.networkOne[14].nic.phy 	nbFramesWithInterference 	0
scalar Forest.networkOne[14].nic.phy 	nbFramesWithoutInterference 	0
scalar Forest.networkOne[14].nic.phy 	nbFramesWithInterferencePartial 	0
scalar Forest.networkOne[14].nic.phy 	nbFramesWithoutInterferencePartial 	0
scalar Forest.networkOne[14].nic.phy 	nbFramesWithInterferenceDropped 	0
scalar Forest.networkOne[14].nic.phy 	nbFramesWithoutInterferenceDropped 	0
scalar Forest.networkOne[14].netwl 	nbDataPacketsForwarded 	0
scalar Forest.networkOne[14].netwl 	nbDataPacketsReceived 	0
scalar Forest.networkOne[14].netwl 	nbDataPacketsSent 	0
scalar Forest.networkOne[14].netwl 	nbDuplicatedFloodsReceived 	0
scalar Forest.networkOne[14].netwl 	nbFloodsSent 	0
scalar Forest.networkOne[14].netwl 	nbPureUnicastSent 	0
scalar Forest.networkOne[14].netwl 	nbRouteFloodsSent 	0
scalar Forest.networkOne[14].netwl 	nbRouteFloodsReceived 	0
scalar Forest.networkOne[14].netwl 	nbUnicastFloodForwarded 	0
scalar Forest.networkOne[14].netwl 	nbPureUnicastForwarded 	0
scalar Forest.networkOne[14].netwl 	nbGetRouteFailures 	0
scalar Forest.networkOne[14].netwl 	nbRoutesRecorded 	0
scalar Forest.networkOne[14].netwl 	meanNbHops 	-nan
scalar Forest.networkOne[14].tranl 	nbAggrPktReceived 	0
scalar Forest.networkOne[14].tranl 	"nbAggrPktSentDown " 	0
scalar Forest.networkOne[14].appl 	"activity duration" 	-1
attr unit  s
scalar Forest.networkOne[14].appl 	firstPacketGeneration 	-1
attr unit  s
scalar Forest.networkOne[14].appl 	lastPacketReception 	-2
attr unit  s
scalar Forest.networkOne[14].appl 	nbPacketsSent 	0
scalar Forest.networkOne[14].appl 	nbPacketsReceived 	0
statistic Forest.networkOne[14].appl 	latency
field count 0
field mean 0
field stddev -nan
field sum 0
field sqrsum 0
field min 0
field max 0
scalar Forest.networkOne[14].batteryStats 	nominal 	10800000
attr unit  mW-s
scalar Forest.networkOne[14].batteryStats 	total 	0.31568877585232
attr unit  mW-s
scalar Forest.networkOne[14].batteryStats 	lifetime 	-1
attr unit  s
scalar Forest.networkOne[14].batteryStats 	"Mean power consumption" 	6.299999854325e-05
attr unit  mW
scalar Forest.networkOne[14].batteryStats 	"num devices" 	1
scalar Forest.networkOne[14].batteryStats 	"physical layer" 	0
scalar Forest.networkOne[14].batteryStats 	"device total (mWs)" 	0.315688783152
scalar Forest.networkOne[14].batteryStats 	account 	0
scalar Forest.networkOne[14].batteryStats 	"energy (mWs)" 	0.315688783152
scalar Forest.networkOne[14].batteryStats 	"time (s)" 	5010.9330659048
scalar Forest.networkOne[14].batteryStats 	"account 0" 	0.315688783152
scalar Forest.networkOne[14].batteryStats 	account 	1
scalar Forest.networkOne[14].batteryStats 	"energy (mWs)" 	0
scalar Forest.networkOne[14].batteryStats 	"time (s)" 	0
scalar Forest.networkOne[14].batteryStats 	"account 1" 	0
scalar Forest.networkOne[14].batteryStats 	account 	2
scalar Forest.networkOne[14].batteryStats 	"energy (mWs)" 	0
scalar Forest.networkOne[14].batteryStats 	"time (s)" 	0
scalar Forest.networkOne[14].batteryStats 	"account 2" 	0
scalar Forest.networkOne[14].batteryStats 	account 	3
scalar Forest.networkOne[14].batteryStats 	"energy (mWs)" 	0
scalar Forest.networkOne[14].batteryStats 	"time (s)" 	0
scalar Forest.networkOne[14].batteryStats 	"account 3" 	0
scalar Forest.networkOne[14].batteryStats 	account 	4
scalar Forest.networkOne[14].batteryStats 	"energy (mWs)" 	0
scalar Forest.networkOne[14].batteryStats 	"time (s)" 	0
scalar Forest.networkOne[14].batteryStats 	"account 4" 	0
scalar Forest.networkOne[15].nic.mac 	nbTxFrames 	0
scalar Forest.networkOne[15].nic.mac 	nbRxFrames 	0
scalar Forest.networkOne[15].nic.mac 	nbDroppedFrames 	0
scalar Forest.networkOne[15].nic.mac 	nbMissedAcks 	0
scalar Forest.networkOne[15].nic.mac 	nbRecvdAcks 	0
scalar Forest.networkOne[15].nic.mac 	nbTxAcks 	0
scalar Forest.networkOne[15].nic.mac 	nbDuplicates 	0
scalar Forest.networkOne[15].nic.mac 	meanBackoff 	0
scalar Forest.networkOne[15].nic.mac 	nbBackoffs 	0
scalar Forest.networkOne[15].nic.mac 	backoffDurations 	0
scalar Forest.networkOne[15].nic.phy 	nbFramesWithInterference 	0
scalar Forest.networkOne[15].nic.phy 	nbFramesWithoutInterference 	0
scalar Forest.networkOne[15].nic.phy 	nbFramesWithInterferencePartial 	0
scalar Forest.networkOne[15].nic.phy 	nbFramesWithoutInterferencePartial 	0
scalar Forest.networkOne[15].nic.phy 	nbFramesWithInterferenceDropped 	0
scalar Forest.networkOne[15].nic.phy 	nbFramesWithoutInterferenceDropped 	0
scalar Forest.networkOne[15].netwl 	nbDataPacketsForwarded 	0
scalar Forest.networkOne[15].netwl 	nbDataPacketsReceived 	0
scalar Forest.networkOne[15].netwl 	nbDataPacketsSent 	0
scalar Forest.networkOne[15].netwl 	nbDuplicatedFloodsReceived 	0
scalar Forest.networkOne[15].netwl 	nbFloodsSent 	0
scalar Forest.networkOne[15].netwl 	nbPureUnicastSent 	0
scalar Forest.networkOne[15].netwl 	nbRouteFloodsSent 	0
scalar Forest.networkOne[15].netwl 	nbRouteFloodsReceived 	0
scalar Forest.networkOne[15].netwl 	nbUnicastFloodForwarded 	0
scalar Forest.networkOne[15].netwl 	nbPureUnicastForwarded 	0
scalar Forest.networkOne[15].netwl 	nbGetRouteFailures 	0
scalar Forest.networkOne[15].netwl 	nbRoutesRecorded 	0
scalar Forest.networkOne[15].netwl 	meanNbHops 	-nan
scalar Forest.networkOne[15].tranl 	nbAggrPktReceived 	0
scalar Forest.networkOne[15].tranl 	"nbAggrPktSentDown " 	0
scalar Forest.networkOne[15].appl 	"activity duration" 	-1
attr unit  s
scalar Forest.networkOne[15].appl 	firstPacketGeneration 	-1
attr unit  s
scalar Forest.networkOne[15].appl 	lastPacketReception 	-2
attr unit  s
scalar Forest.networkOne[15].appl 	nbPacketsSent 	0
scalar Forest.networkOne[15].appl 	nbPacketsReceived 	0
statistic Forest.networkOne[15].appl 	latency
field count 0
field mean 0
field stddev -nan
field sum 0
field sqrsum 0
field min 0
field max 0
scalar Forest.networkOne[15].batteryStats 	nominal 	10800000
attr unit  mW-s
scalar Forest.networkOne[15].batteryStats 	total 	0.31568877585232
attr unit  mW-s
scalar Forest.networkOne[15].batteryStats 	lifetime 	-1
attr unit  s
scalar Forest.networkOne[15].batteryStats 	"Mean power consumption" 	6.299999854325e-05
attr unit  mW
scalar Forest.networkOne[15].batteryStats 	"num devices" 	1
scalar Forest.networkOne[15].batteryStats 	"physical layer" 	0
scalar Forest.networkOne[15].batteryStats 	"device total (mWs)" 	0.315688783152
scalar Forest.networkOne[15].batteryStats 	account 	0
scalar Forest.networkOne[15].batteryStats 	"energy (mWs)" 	0.315688783152
scalar Forest.networkOne[15].batteryStats 	"time (s)" 	5010.9330659048
scalar Forest.networkOne[15].batteryStats 	"account 0" 	0.315688783152
scalar Forest.networkOne[15].batteryStats 	account 	1
scalar Forest.networkOne[15].batteryStats 	"energy (mWs)" 	0
scalar Forest.networkOne[15].batteryStats 	"time (s)" 	0
scalar Forest.networkOne[15].batteryStats 	"account 1" 	0
scalar Forest.networkOne[15].batteryStats 	account 	2
scalar Forest.networkOne[15].batteryStats 	"energy (mWs)" 	0
scalar Forest.networkOne[15].batteryStats 	"time (s)" 	0
scalar Forest.networkOne[15].batteryStats 	"account 2" 	0
scalar Forest.networkOne[15].batteryStats 	account 	3
scalar Forest.networkOne[15].batteryStats 	"energy (mWs)" 	0
scalar Forest.networkOne[15].batteryStats 	"time (s)" 	0
scalar Forest.networkOne[15].batteryStats 	"account 3" 	0
scalar Forest.networkOne[15].batteryStats 	account 	4
scalar Forest.networkOne[15].batteryStats 	"energy (mWs)" 	0
scalar Forest.networkOne[15].batteryStats 	"time (s)" 	0
scalar Forest.networkOne[15].batteryStats 	"account 4" 	0
scalar Forest.networkOne[16].nic.mac 	nbTxFrames 	5005
scalar Forest.networkOne[16].nic.mac 	nbRxFrames 	9
scalar Forest.networkOne[16].nic.mac 	nbDroppedFrames 	0
scalar Forest.networkOne[16].nic.mac 	nbMissedAcks 	0
scalar Forest.networkOne[16].nic.mac 	nbRecvdAcks 	0
scalar Forest.networkOne[16].nic.mac 	nbTxAcks 	0
scalar Forest.networkOne[16].nic.mac 	nbDuplicates 	0
scalar Forest.networkOne[16].nic.mac 	meanBackoff 	0.0011348602912239
scalar Forest.networkOne[16].nic.mac 	nbBackoffs 	5082
scalar Forest.networkOne[16].nic.mac 	backoffDurations 	5.7673600000001
scalar Forest.networkOne[16].nic.phy 	nbFramesWithInterference 	54
scalar Forest.networkOne[16].nic.phy 	nbFramesWithoutInterference 	32297
scalar Forest.networkOne[16].nic.phy 	nbFramesWithInterferencePartial 	10
scalar Forest.networkOne[16].nic.phy 	nbFramesWithoutInterferencePartial 	371
scalar Forest.networkOne[16].nic.phy 	nbFramesWithInterferenceDropped 	15
scalar Forest.networkOne[16].nic.phy 	nbFramesWithoutInterferenceDropped 	5230
scalar Forest.networkOne[16].netwl 	nbDataPacketsForwarded 	5
scalar Forest.networkOne[16].netwl 	nbDataPacketsReceived 	0
scalar Forest.networkOne[16].netwl 	nbDataPacketsSent 	5000
scalar Forest.networkOne[16].netwl 	nbDuplicatedFloodsReceived 	13
scalar Forest.networkOne[16].netwl 	nbFloodsSent 	0
scalar Forest.networkOne[16].netwl 	nbPureUnicastSent 	5000
scalar Forest.networkOne[16].netwl 	nbRouteFloodsSent 	0
scalar Forest.networkOne[16].netwl 	nbRouteFloodsReceived 	5
scalar Forest.networkOne[16].netwl 	nbUnicastFloodForwarded 	0
scalar Forest.networkOne[16].netwl 	nbPureUnicastForwarded 	0
scalar Forest.networkOne[16].netwl 	nbGetRouteFailures 	0
scalar Forest.networkOne[16].netwl 	nbRoutesRecorded 	1
scalar Forest.networkOne[16].netwl 	meanNbHops 	-nan
scalar Forest.networkOne[16].tranl 	nbAggrPktReceived 	0
scalar Forest.networkOne[16].tranl 	"nbAggrPktSentDown " 	0
scalar Forest.networkOne[16].appl 	"activity duration" 	-1
attr unit  s
scalar Forest.networkOne[16].appl 	firstPacketGeneration 	-1
attr unit  s
scalar Forest.networkOne[16].appl 	lastPacketReception 	-2
attr unit  s
scalar Forest.networkOne[16].appl 	nbPacketsSent 	5000
scalar Forest.networkOne[16].appl 	nbPacketsReceived 	0
statistic Forest.networkOne[16].appl 	latency
field count 0
field mean 0
field stddev -nan
field sum 0
field sqrsum 0
field min 0
field max 0
scalar Forest.networkOne[16].batteryStats 	nominal 	10800000
attr unit  mW-s
scalar Forest.networkOne[16].batteryStats 	total 	282593.08274305
attr unit  mW-s
scalar Forest.networkOne[16].batteryStats 	lifetime 	-1
attr unit  s
scalar Forest.networkOne[16].batteryStats 	"Mean power consumption" 	56.395301838267
attr unit  mW
scalar Forest.networkOne[16].batteryStats 	"num devices" 	1
scalar Forest.networkOne[16].batteryStats 	"physical layer" 	0
scalar Forest.networkOne[16].batteryStats 	"device total (mWs)" 	282593.082741
scalar Forest.networkOne[16].batteryStats 	account 	0
scalar Forest.networkOne[16].batteryStats 	"energy (mWs)" 	0
scalar Forest.networkOne[16].batteryStats 	"time (s)" 	0
scalar Forest.networkOne[16].batteryStats 	"account 0" 	0
scalar Forest.networkOne[16].batteryStats 	account 	1
scalar Forest.networkOne[16].batteryStats 	"energy (mWs)" 	282192.090837
scalar Forest.networkOne[16].batteryStats 	"time (s)" 	5003.4058659048
scalar Forest.networkOne[16].batteryStats 	"account 1" 	282192.090837
scalar Forest.networkOne[16].batteryStats 	account 	2
scalar Forest.networkOne[16].batteryStats 	"energy (mWs)" 	292.59561599998
scalar Forest.networkOne[16].batteryStats 	"time (s)" 	5.60528
scalar Forest.networkOne[16].batteryStats 	"account 2" 	292.59561599998
scalar Forest.networkOne[16].batteryStats 	account 	3
scalar Forest.networkOne[16].batteryStats 	"energy (mWs)" 	108.39628799999
scalar Forest.networkOne[16].batteryStats 	"time (s)" 	1.92192
scalar Forest.networkOne[16].batteryStats 	"account 3" 	108.39628799999
scalar Forest.networkOne[16].batteryStats 	account 	4
scalar Forest.networkOne[16].batteryStats 	"energy (mWs)" 	0
scalar Forest.networkOne[16].batteryStats 	"time (s)" 	0
scalar Forest.networkOne[16].batteryStats 	"account 4" 	0
scalar Forest.networkOne[17].nic.mac 	nbTxFrames 	0
scalar Forest.networkOne[17].nic.mac 	nbRxFrames 	0
scalar Forest.networkOne[17].nic.mac 	nbDroppedFrames 	0
scalar Forest.networkOne[17].nic.mac 	nbMissedAcks 	0
scalar Forest.networkOne[17].nic.mac 	nbRecvdAcks 	0
scalar Forest.networkOne[17].nic.mac 	nbTxAcks 	0
scalar Forest.networkOne[17].nic.mac 	nbDuplicates 	0
scalar Forest.networkOne[17].nic.mac 	meanBackoff 	0
scalar Forest.networkOne[17].nic.mac 	nbBackoffs 	0
scalar Forest.networkOne[17].nic.mac 	backoffDurations 	0
scalar Forest.networkOne[17].nic.phy 	nbFramesWithInterference 	0
scalar Forest.networkOne[17].nic.phy 	nbFramesWithoutInterference 	0
scalar Forest.networkOne[17].nic.phy 	nbFramesWithInterferencePartial 	0
scalar Forest.networkOne[17].nic.phy 	nbFramesWithoutInterferencePartial 	0
scalar Forest.networkOne[17].nic.phy 	nbFramesWithInterferenceDropped 	0
scalar Forest.networkOne[17].nic.phy 	nbFramesWithoutInterferenceDropped 	0
scalar Forest.networkOne[17].netwl 	nbDataPacketsForwarded 	0
scalar Forest.networkOne[17].netwl 	nbDataPacketsReceived 	0
scalar Forest.networkOne[17].netwl 	nbDataPacketsSent 	0
scalar Forest.networkOne[17].netwl 	nbDuplicatedFloodsReceived 	0
scalar Forest.networkOne[17].netwl 	nbFloodsSent 	0
scalar Forest.networkOne[17].netwl 	nbPureUnicastSent 	0
scalar Forest.networkOne[17].netwl 	nbRouteFloodsSent 	0
scalar Forest.networkOne[17].netwl 	nbRouteFloodsReceived 	0
scalar Forest.networkOne[17].netwl 	nbUnicastFloodForwarded 	0
scalar Forest.networkOne[17].netwl 	nbPureUnicastForwarded 	0
scalar Forest.networkOne[17].netwl 	nbGetRouteFailures 	0
scalar Forest.networkOne[17].netwl 	nbRoutesRecorded 	0
scalar Forest.networkOne[17].netwl 	meanNbHops 	-nan
scalar Forest.networkOne[17].tranl 	nbAggrPktReceived 	0
scalar Forest.networkOne[17].tranl 	"nbAggrPktSentDown " 	0
scalar Forest.networkOne[17].appl 	"activity duration" 	-1
attr unit  s
scalar Forest.networkOne[17].appl 	firstPacketGeneration 	-1
attr unit  s
scalar Forest.networkOne[17].appl 	lastPacketReception 	-2
attr unit  s
scalar Forest.networkOne[17].appl 	nbPacketsSent 	0
scalar Forest.networkOne[17].appl 	nbPacketsReceived 	0
statistic Forest.networkOne[17].appl 	latency
field count 0
field mean 0
field stddev -nan
field sum 0
field sqrsum 0
field min 0
field max 0
scalar Forest.networkOne[17].batteryStats 	nominal 	10800000
attr unit  mW-s
scalar Forest.networkOne[17].batteryStats 	total 	0.31568877585232
attr unit  mW-s
scalar Forest.networkOne[17].batteryStats 	lifetime 	-1
attr unit  s
scalar Forest.networkOne[17].batteryStats 	"Mean power consumption" 	6.299999854325e-05
attr unit  mW
scalar Forest.networkOne[17].batteryStats 	"num devices" 	1
scalar Forest.networkOne[17].batteryStats 	"physical layer" 	0
scalar Forest.networkOne[17].batteryStats 	"device total (mWs)" 	0.315688783152
scalar Forest.networkOne[17].batteryStats 	account 	0
scalar Forest.networkOne[17].batteryStats 	"energy (mWs)" 	0.315688783152
scalar Forest.networkOne[17].batteryStats 	"time (s)" 	5010.9330659048
scalar Forest.networkOne[17].batteryStats 	"account 0" 	0.315688783152
scalar Forest.networkOne[17].batteryStats 	account 	1
scalar Forest.networkOne[17].batteryStats 	"energy (mWs)" 	0
scalar Forest.networkOne[17].batteryStats 	"time (s)" 	0
scalar Forest.networkOne[17].batteryStats 	"account 1" 	0
scalar Forest.networkOne[17].batteryStats 	account 	2
scalar Forest.networkOne[17].batteryStats 	"energy (mWs)" 	0
scalar Forest.networkOne[17].batteryStats 	"time (s)" 	0
scalar Forest.networkOne[17].batteryStats 	"account 2" 	0
scalar Forest.networkOne[17].batteryStats 	account 	3
scalar Forest.networkOne[17].batteryStats 	"energy (mWs)" 	0
scalar Forest.networkOne[17].batteryStats 	"time (s)" 	0
scalar Forest.networkOne[17].batteryStats 	"account 3" 	0
scalar Forest.networkOne[17].batteryStats 	account 	4
scalar Forest.networkOne[17].batteryStats 	"energy (mWs)" 	0
scalar Forest.networkOne[17].batteryStats 	"time (s)" 	0
scalar Forest.networkOne[17].batteryStats 	"account 4" 	0
scalar Forest.networkOne[18].nic.mac 	nbTxFrames 	0
scalar Forest.networkOne[18].nic.mac 	nbRxFrames 	0
scalar Forest.networkOne[18].nic.mac 	nbDroppedFrames 	0
scalar Forest.networkOne[18].nic.mac 	nbMissedAcks 	0
scalar Forest.networkOne[18].nic.mac 	nbRecvdAcks 	0
scalar Forest.networkOne[18].nic.mac 	nbTxAcks 	0
scalar Forest.networkOne[18].nic.mac 	nbDuplicates 	0
scalar Forest.networkOne[18].nic.mac 	meanBackoff 	0
scalar Forest.networkOne[18].nic.mac 	nbBackoffs 	0
scalar Forest.networkOne[18].nic.mac 	backoffDurations 	0
scalar Forest.networkOne[18].nic.phy 	nbFramesWithInterference 	0
scalar Forest.networkOne[18].nic.phy 	nbFramesWithoutInterference 	0
scalar Forest.networkOne[18].nic.phy 	nbFramesWithInterferencePartial 	0
scalar Forest.networkOne[18].nic.phy 	nbFramesWithoutInterferencePartial 	0
scalar Forest.networkOne[18].nic.phy 	nbFramesWithInterferenceDropped 	0
scalar Forest.networkOne[18].nic.phy 	nbFramesWithoutInterferenceDropped 	0
scalar Forest.networkOne[18].netwl 	nbDataPacketsForwarded 	0
scalar Forest.networkOne[18].netwl 	nbDataPacketsReceived 	0
scalar Forest.networkOne[18].netwl 	nbDataPacketsSent 	0
scalar Forest.networkOne[18].netwl 	nbDuplicatedFloodsReceived 	0
scalar Forest.networkOne[18].netwl 	nbFloodsSent 	0
scalar Forest.networkOne[18].netwl 	nbPureUnicastSent 	0
scalar Forest.networkOne[18].netwl 	nbRouteFloodsSent 	0
scalar Forest.networkOne[18].netwl 	nbRouteFloodsReceived 	0
scalar Forest.networkOne[18].netwl 	nbUnicastFloodForwarded 	0
scalar Forest.networkOne[18].netwl 	nbPureUnicastForwarded 	0
scalar Forest.networkOne[18].netwl 	nbGetRouteFailures 	0
scalar Forest.networkOne[18].netwl 	nbRoutesRecorded 	0
scalar Forest.networkOne[18].netwl 	meanNbHops 	-nan
scalar Forest.networkOne[18].tranl 	nbAggrPktReceived 	0
scalar Forest.networkOne[18].tranl 	"nbAggrPktSentDown " 	0
scalar Forest.networkOne[18].appl 	"activity duration" 	-1
attr unit  s
scalar Forest.networkOne[18].appl 	firstPacketGeneration 	-1
attr unit  s
scalar Forest.networkOne[18].appl 	lastPacketReception 	-2
attr unit  s
scalar Forest.networkOne[18].appl 	nbPacketsSent 	0
scalar Forest.networkOne[18].appl 	nbPacketsReceived 	0
statistic Forest.networkOne[18].appl 	latency
field count 0
field mean 0
field stddev -nan
field sum 0
field sqrsum 0
field min 0
field max 0
scalar Forest.networkOne[18].batteryStats 	nominal 	10800000
attr unit  mW-s
scalar Forest.networkOne[18].batteryStats 	total 	0.31568877585232
attr unit  mW-s
scalar Forest.networkOne[18].batteryStats 	lifetime 	-1
attr unit  s
scalar Forest.networkOne[18].batteryStats 	"Mean power consumption" 	6.299999854325e-05
attr unit  mW
scalar Forest.networkOne[18].batteryStats 	"num devices" 	1
scalar Forest.networkOne[18].batteryStats 	"physical layer" 	0
scalar Forest.networkOne[18].batteryStats 	"device total (mWs)" 	0.315688783152
scalar Forest.networkOne[18].batteryStats 	account 	0
scalar Forest.networkOne[18].batteryStats 	"energy (mWs)" 	0.315688783152
scalar Forest.networkOne[18].batteryStats 	"time (s)" 	5010.9330659048
scalar Forest.networkOne[18].batteryStats 	"account 0" 	0.315688783152
scalar Forest.networkOne[18].batteryStats 	account 	1
scalar Forest.networkOne[18].batteryStats 	"energy (mWs)" 	0
scalar Forest.networkOne[18].batteryStats 	"time (s)" 	0
scalar Forest.networkOne[18].batteryStats 	"account 1" 	0
scalar Forest.networkOne[18].batteryStats 	account 	2
scalar Forest.networkOne[18].batteryStats 	"energy (mWs)" 	0
scalar Forest.networkOne[18].batteryStats 	"time (s)" 	0
[...]
scalar Forest.networkOne[76].nic.mac 	nbRecvdAcks 	0
scalar Forest.networkOne[76].nic.mac 	nbTxAcks 	0
scalar Forest.networkOne[76].nic.mac 	nbDuplicates 	0
scalar Forest.networkOne[76].nic.mac 	meanBackoff 	0
scalar Forest.networkOne[76].nic.mac 	nbBackoffs 	0
scalar Forest.networkOne[76].nic.mac 	backoffDurations 	0
scalar Forest.networkOne[76].nic.phy 	nbFramesWithInterference 	0
scalar Forest.networkOne[76].nic.phy 	nbFramesWithoutInterference 	0
scalar Forest.networkOne[76].nic.phy 	nbFramesWithInterferencePartial 	0
scalar Forest.networkOne[76].nic.phy 	nbFramesWithoutInterferencePartial 	0
scalar Forest.networkOne[76].nic.phy 	nbFramesWithInterferenceDropped 	0
scalar Forest.networkOne[76].nic.phy 	nbFramesWithoutInterferenceDropped 	0
scalar Forest.networkOne[76].netwl 	nbDataPacketsForwarded 	0
scalar Forest.networkOne[76].netwl 	nbDataPacketsReceived 	0
scalar Forest.networkOne[76].netwl 	nbDataPacketsSent 	0
scalar Forest.networkOne[76].netwl 	nbDuplicatedFloodsReceived 	0
scalar Forest.networkOne[76].netwl 	nbFloodsSent 	0
scalar Forest.networkOne[76].netwl 	nbPureUnicastSent 	0
scalar Forest.networkOne[76].netwl 	nbRouteFloodsSent 	0
scalar Forest.networkOne[76].netwl 	nbRouteFloodsReceived 	0
scalar Forest.networkOne[76].netwl 	nbUnicastFloodForwarded 	0
scalar Forest.networkOne[76].netwl 	nbPureUnicastForwarded 	0
scalar Forest.networkOne[76].netwl 	nbGetRouteFailures 	0
scalar Forest.networkOne[76].netwl 	nbRoutesRecorded 	0
scalar Forest.networkOne[76].netwl 	meanNbHops 	-nan
scalar Forest.networkOne[76].tranl 	nbAggrPktReceived 	0
scalar Forest.networkOne[76].tranl 	"nbAggrPktSentDown " 	0
scalar Forest.networkOne[76].appl 	"activity duration" 	-1
attr unit  s
scalar Forest.networkOne[76].appl 	firstPacketGeneration 	-1
attr unit  s
scalar Forest.networkOne[76].appl 	lastPacketReception 	-2
attr unit  s
scalar Forest.networkOne[76].appl 	nbPacketsSent 	0
scalar Forest.networkOne[76].appl 	nbPacketsReceived 	0
statistic Forest.networkOne[76].appl 	latency
field count 0
field mean 0
field stddev -nan
field sum 0
field sqrsum 0
field min 0
field max 0
scalar Forest.networkOne[76].batteryStats 	nominal 	10800000
attr unit  mW-s
scalar Forest.networkOne[76].batteryStats 	total 	0.31568877585232
attr unit  mW-s
scalar Forest.networkOne[76].batteryStats 	lifetime 	-1
attr unit  s
scalar Forest.networkOne[76].batteryStats 	"Mean power consumption" 	6.299999854325e-05
attr unit  mW
scalar Forest.networkOne[76].batteryStats 	"num devices" 	1
scalar Forest.networkOne[76].batteryStats 	"physical layer" 	0
scalar Forest.networkOne[76].batteryStats 	"device total (mWs)" 	0.315688783152
scalar Forest.networkOne[76].batteryStats 	account 	0
scalar Forest.networkOne[76].batteryStats 	"energy (mWs)" 	0.315688783152
scalar Forest.networkOne[76].batteryStats 	"time (s)" 	5010.9330659048
scalar Forest.networkOne[76].batteryStats 	"account 0" 	0.315688783152
scalar Forest.networkOne[76].batteryStats 	account 	1
scalar Forest.networkOne[76].batteryStats 	"energy (mWs)" 	0
scalar Forest.networkOne[76].batteryStats 	"time (s)" 	0
scalar Forest.networkOne[76].batteryStats 	"account 1" 	0
scalar Forest.networkOne[76].batteryStats 	account 	2
scalar Forest.networkOne[76].batteryStats 	"energy (mWs)" 	0
scalar Forest.networkOne[76].batteryStats 	"time (s)" 	0
scalar Forest.networkOne[76].batteryStats 	"account 2" 	0
scalar Forest.networkOne[76].batteryStats 	account 	3
scalar Forest.networkOne[76].batteryStats 	"energy (mWs)" 	0
scalar Forest.networkOne[76].batteryStats 	"time (s)" 	0
scalar Forest.networkOne[76].batteryStats 	"account 3" 	0
scalar Forest.networkOne[76].batteryStats 	account 	4
scalar Forest.networkOne[76].batteryStats 	"energy (mWs)" 	0
scalar Forest.networkOne[76].batteryStats 	"time (s)" 	0
scalar Forest.networkOne[76].batteryStats 	"account 4" 	0
scalar Forest.networkOne[77].nic.mac 	nbTxFrames 	0
scalar Forest.networkOne[77].nic.mac 	nbRxFrames 	0
scalar Forest.networkOne[77].nic.mac 	nbDroppedFrames 	0
scalar Forest.networkOne[77].nic.mac 	nbMissedAcks 	0
scalar Forest.networkOne[77].nic.mac 	nbRecvdAcks 	0
scalar Forest.networkOne[77].nic.mac 	nbTxAcks 	0
scalar Forest.networkOne[77].nic.mac 	nbDuplicates 	0
scalar Forest.networkOne[77].nic.mac 	meanBackoff 	0
scalar Forest.networkOne[77].nic.mac 	nbBackoffs 	0
scalar Forest.networkOne[77].nic.mac 	backoffDurations 	0
scalar Forest.networkOne[77].nic.phy 	nbFramesWithInterference 	0
scalar Forest.networkOne[77].nic.phy 	nbFramesWithoutInterference 	0
scalar Forest.networkOne[77].nic.phy 	nbFramesWithInterferencePartial 	0
scalar Forest.networkOne[77].nic.phy 	nbFramesWithoutInterferencePartial 	0
scalar Forest.networkOne[77].nic.phy 	nbFramesWithInterferenceDropped 	0
scalar Forest.networkOne[77].nic.phy 	nbFramesWithoutInterferenceDropped 	0
scalar Forest.networkOne[77].netwl 	nbDataPacketsForwarded 	0
scalar Forest.networkOne[77].netwl 	nbDataPacketsReceived 	0
scalar Forest.networkOne[77].netwl 	nbDataPacketsSent 	0
scalar Forest.networkOne[77].netwl 	nbDuplicatedFloodsReceived 	0
scalar Forest.networkOne[77].netwl 	nbFloodsSent 	0
scalar Forest.networkOne[77].netwl 	nbPureUnicastSent 	0
scalar Forest.networkOne[77].netwl 	nbRouteFloodsSent 	0
scalar Forest.networkOne[77].netwl 	nbRouteFloodsReceived 	0
scalar Forest.networkOne[77].netwl 	nbUnicastFloodForwarded 	0
scalar Forest.networkOne[77].netwl 	nbPureUnicastForwarded 	0
scalar Forest.networkOne[77].netwl 	nbGetRouteFailures 	0
scalar Forest.networkOne[77].netwl 	nbRoutesRecorded 	0
scalar Forest.networkOne[77].netwl 	meanNbHops 	-nan
scalar Forest.networkOne[77].tranl 	nbAggrPktReceived 	0
scalar Forest.networkOne[77].tranl 	"nbAggrPktSentDown " 	0
scalar Forest.networkOne[77].appl 	"activity duration" 	-1
attr unit  s
scalar Forest.networkOne[77].appl 	firstPacketGeneration 	-1
attr unit  s
scalar Forest.networkOne[77].appl 	lastPacketReception 	-2
attr unit  s
scalar Forest.networkOne[77].appl 	nbPacketsSent 	0
scalar Forest.networkOne[77].appl 	nbPacketsReceived 	0
statistic Forest.networkOne[77].appl 	latency
field count 0
field mean 0
field stddev -nan
field sum 0
field sqrsum 0
field min 0
field max 0
scalar Forest.networkOne[77].batteryStats 	nominal 	10800000
attr unit  mW-s
scalar Forest.networkOne[77].batteryStats 	total 	0.31568877585232
attr unit  mW-s
scalar Forest.networkOne[77].batteryStats 	lifetime 	-1
attr unit  s
scalar Forest.networkOne[77].batteryStats 	"Mean power consumption" 	6.299999854325e-05
attr unit  mW
scalar Forest.networkOne[77].batteryStats 	"num devices" 	1
scalar Forest.networkOne[77].batteryStats 	"physical layer" 	0
scalar Forest.networkOne[77].batteryStats 	"device total (mWs)" 	0.315688783152
scalar Forest.networkOne[77].batteryStats 	account 	0
scalar Forest.networkOne[77].batteryStats 	"energy (mWs)" 	0.315688783152
scalar Forest.networkOne[77].batteryStats 	"time (s)" 	5010.9330659048
scalar Forest.networkOne[77].batteryStats 	"account 0" 	0.315688783152
scalar Forest.networkOne[77].batteryStats 	account 	1
scalar Forest.networkOne[77].batteryStats 	"energy (mWs)" 	0
scalar Forest.networkOne[77].batteryStats 	"time (s)" 	0
scalar Forest.networkOne[77].batteryStats 	"account 1" 	0
scalar Forest.networkOne[77].batteryStats 	account 	2
scalar Forest.networkOne[77].batteryStats 	"energy (mWs)" 	0
scalar Forest.networkOne[77].batteryStats 	"time (s)" 	0
scalar Forest.networkOne[77].batteryStats 	"account 2" 	0
scalar Forest.networkOne[77].batteryStats 	account 	3
scalar Forest.networkOne[77].batteryStats 	"energy (mWs)" 	0
scalar Forest.networkOne[77].batteryStats 	"time (s)" 	0
scalar Forest.networkOne[77].batteryStats 	"account 3" 	0
scalar Forest.networkOne[77].batteryStats 	account 	4
scalar Forest.networkOne[77].batteryStats 	"energy (mWs)" 	0
scalar Forest.networkOne[77].batteryStats 	"time (s)" 	0
scalar Forest.networkOne[77].batteryStats 	"account 4" 	0
scalar Forest.networkOne[78].nic.mac 	nbTxFrames 	0
scalar Forest.networkOne[78].nic.mac 	nbRxFrames 	0
scalar Forest.networkOne[78].nic.mac 	nbDroppedFrames 	0
scalar Forest.networkOne[78].nic.mac 	nbMissedAcks 	0
scalar Forest.networkOne[78].nic.mac 	nbRecvdAcks 	0
scalar Forest.networkOne[78].nic.mac 	nbTxAcks 	0
scalar Forest.networkOne[78].nic.mac 	nbDuplicates 	0
scalar Forest.networkOne[78].nic.mac 	meanBackoff 	0
scalar Forest.networkOne[78].nic.mac 	nbBackoffs 	0
scalar Forest.networkOne[78].nic.mac 	backoffDurations 	0
scalar Forest.networkOne[78].nic.phy 	nbFramesWithInterference 	0
scalar Forest.networkOne[78].nic.phy 	nbFramesWithoutInterference 	0
scalar Forest.networkOne[78].nic.phy 	nbFramesWithInterferencePartial 	0
scalar Forest.networkOne[78].nic.phy 	nbFramesWithoutInterferencePartial 	0
scalar Forest.networkOne[78].nic.phy 	nbFramesWithInterferenceDropped 	0
scalar Forest.networkOne[78].nic.phy 	nbFramesWithoutInterferenceDropped 	0
scalar Forest.networkOne[78].netwl 	nbDataPacketsForwarded 	0
scalar Forest.networkOne[78].netwl 	nbDataPacketsReceived 	0
scalar Forest.networkOne[78].netwl 	nbDataPacketsSent 	0
scalar Forest.networkOne[78].netwl 	nbDuplicatedFloodsReceived 	0
scalar Forest.networkOne[78].netwl 	nbFloodsSent 	0
scalar Forest.networkOne[78].netwl 	nbPureUnicastSent 	0
scalar Forest.networkOne[78].netwl 	nbRouteFloodsSent 	0
scalar Forest.networkOne[78].netwl 	nbRouteFloodsReceived 	0
scalar Forest.networkOne[78].netwl 	nbUnicastFloodForwarded 	0
scalar Forest.networkOne[78].netwl 	nbPureUnicastForwarded 	0
scalar Forest.networkOne[78].netwl 	nbGetRouteFailures 	0
scalar Forest.networkOne[78].netwl 	nbRoutesRecorded 	0
scalar Forest.networkOne[78].netwl 	meanNbHops 	-nan
scalar Forest.networkOne[78].tranl 	nbAggrPktReceived 	0
scalar Forest.networkOne[78].tranl 	"nbAggrPktSentDown " 	0
scalar Forest.networkOne[78].appl 	"activity duration" 	-1
attr unit  s
scalar Forest.networkOne[78].appl 	firstPacketGeneration 	-1
attr unit  s
scalar Forest.networkOne[78].appl 	lastPacketReception 	-2
attr unit  s
scalar Forest.networkOne[78].appl 	nbPacketsSent 	0
scalar Forest.networkOne[78].appl 	nbPacketsReceived 	0
statistic Forest.networkOne[78].appl 	latency
field count 0
field mean 0
field stddev -nan
field sum 0
field sqrsum 0
field min 0
field max 0
scalar Forest.networkOne[78].batteryStats 	nominal 	10800000
attr unit  mW-s
scalar Forest.networkOne[78].batteryStats 	total 	0.31568877585232
attr unit  mW-s
scalar Forest.networkOne[78].batteryStats 	lifetime 	-1
attr unit  s
scalar Forest.networkOne[78].batteryStats 	"Mean power consumption" 	6.299999854325e-05
attr unit  mW
scalar Forest.networkOne[78].batteryStats 	"num devices" 	1
scalar Forest.networkOne[78].batteryStats 	"physical layer" 	0
scalar Forest.networkOne[78].batteryStats 	"device total (mWs)" 	0.315688783152
scalar Forest.networkOne[78].batteryStats 	account 	0
scalar Forest.networkOne[78].batteryStats 	"energy (mWs)" 	0.315688783152
scalar Forest.networkOne[78].batteryStats 	"time (s)" 	5010.9330659048
scalar Forest.networkOne[78].batteryStats 	"account 0" 	0.315688783152
scalar Forest.networkOne[78].batteryStats 	account 	1
scalar Forest.networkOne[78].batteryStats 	"energy (mWs)" 	0
scalar Forest.networkOne[78].batteryStats 	"time (s)" 	0
scalar Forest.networkOne[78].batteryStats 	"account 1" 	0
scalar Forest.networkOne[78].batteryStats 	account 	2
scalar Forest.networkOne[78].batteryStats 	"energy (mWs)" 	0
scalar Forest.networkOne[78].batteryStats 	"time (s)" 	0
scalar Forest.networkOne[78].batteryStats 	"account 2" 	0
scalar Forest.networkOne[78].batteryStats 	account 	3
scalar Forest.networkOne[78].batteryStats 	"energy (mWs)" 	0
scalar Forest.networkOne[78].batteryStats 	"time (s)" 	0
scalar Forest.networkOne[78].batteryStats 	"account 3" 	0
scalar Forest.networkOne[78].batteryStats 	account 	4
scalar Forest.networkOne[78].batteryStats 	"energy (mWs)" 	0
scalar Forest.networkOne[78].batteryStats 	"time (s)" 	0
scalar Forest.networkOne[78].batteryStats 	"account 4" 	0
scalar Forest.networkOne[79].nic.mac 	nbTxFrames 	0
scalar Forest.networkOne[79].nic.mac 	nbRxFrames 	0
scalar Forest.networkOne[79].nic.mac 	nbDroppedFrames 	0
scalar Forest.networkOne[79].nic.mac 	nbMissedAcks 	0
scalar Forest.networkOne[79].nic.mac 	nbRecvdAcks 	0
scalar Forest.networkOne[79].nic.mac 	nbTxAcks 	0
scalar Forest.networkOne[79].nic.mac 	nbDuplicates 	0
scalar Forest.networkOne[79].nic.mac 	meanBackoff 	0
scalar Forest.networkOne[79].nic.mac 	nbBackoffs 	0
scalar Forest.networkOne[79].nic.mac 	backoffDurations 	0
scalar Forest.networkOne[79].nic.phy 	nbFramesWithInterference 	0
scalar Forest.networkOne[79].nic.phy 	nbFramesWithoutInterference 	0
scalar Forest.networkOne[79].nic.phy 	nbFramesWithInterferencePartial 	0
scalar Forest.networkOne[79].nic.phy 	nbFramesWithoutInterferencePartial 	0
scalar Forest.networkOne[79].nic.phy 	nbFramesWithInterferenceDropped 	0
scalar Forest.networkOne[79].nic.phy 	nbFramesWithoutInterferenceDropped 	0
scalar Forest.networkOne[79].netwl 	nbDataPacketsForwarded 	0
scalar Forest.networkOne[79].netwl 	nbDataPacketsReceived 	0
scalar Forest.networkOne[79].netwl 	nbDataPacketsSent 	0
scalar Forest.networkOne[79].netwl 	nbDuplicatedFloodsReceived 	0
scalar Forest.networkOne[79].netwl 	nbFloodsSent 	0
scalar Forest.networkOne[79].netwl 	nbPureUnicastSent 	0
scalar Forest.networkOne[79].netwl 	nbRouteFloodsSent 	0
scalar Forest.networkOne[79].netwl 	nbRouteFloodsReceived 	0
scalar Forest.networkOne[79].netwl 	nbUnicastFloodForwarded 	0
scalar Forest.networkOne[79].netwl 	nbPureUnicastForwarded 	0
scalar Forest.networkOne[79].netwl 	nbGetRouteFailures 	0
scalar Forest.networkOne[79].netwl 	nbRoutesRecorded 	0
scalar Forest.networkOne[79].netwl 	meanNbHops 	-nan
scalar Forest.networkOne[79].tranl 	nbAggrPktReceived 	0
scalar Forest.networkOne[79].tranl 	"nbAggrPktSentDown " 	0
scalar Forest.networkOne[79].appl 	"activity duration" 	-1
attr unit  s
scalar Forest.networkOne[79].appl 	firstPacketGeneration 	-1
attr unit  s
scalar Forest.networkOne[79].appl 	lastPacketReception 	-2
attr unit  s
scalar Forest.networkOne[79].appl 	nbPacketsSent 	0
scalar Forest.networkOne[79].appl 	nbPacketsReceived 	0
statistic Forest.networkOne[79].appl 	latency
field count 0
field mean 0
field stddev -nan
field sum 0
field sqrsum 0
field min 0
field max 0
scalar Forest.networkOne[79].batteryStats 	nominal 	10800000
attr unit  mW-s
scalar Forest.networkOne[79].batteryStats 	total 	0.31568877585232
attr unit  mW-s
scalar Forest.networkOne[79].batteryStats 	lifetime 	-1
attr unit  s
scalar Forest.networkOne[79].batteryStats 	"Mean power consumption" 	6.299999854325e-05
attr unit  mW
scalar Forest.networkOne[79].batteryStats 	"num devices" 	1
scalar Forest.networkOne[79].batteryStats 	"physical layer" 	0
scalar Forest.networkOne[79].batteryStats 	"device total (mWs)" 	0.315688783152
scalar Forest.networkOne[79].batteryStats 	account 	0
scalar Forest.networkOne[79].batteryStats 	"energy (mWs)" 	0.315688783152
scalar Forest.networkOne[79].batteryStats 	"time (s)" 	5010.9330659048
scalar Forest.networkOne[79].batteryStats 	"account 0" 	0.315688783152
scalar Forest.networkOne[79].batteryStats 	account 	1
scalar Forest.networkOne[79].batteryStats 	"energy (mWs)" 	0
scalar Forest.networkOne[79].batteryStats 	"time (s)" 	0
scalar Forest.networkOne[79].batteryStats 	"account 1" 	0
scalar Forest.networkOne[79].batteryStats 	account 	2
scalar Forest.networkOne[79].batteryStats 	"energy (mWs)" 	0
scalar Forest.networkOne[79].batteryStats 	"time (s)" 	0
scalar Forest.networkOne[79].batteryStats 	"account 2" 	0
scalar Forest.networkOne[79].batteryStats 	account 	3
scalar Forest.networkOne[79].batteryStats 	"energy (mWs)" 	0
scalar Forest.networkOne[79].batteryStats 	"time (s)" 	0
scalar Forest.networkOne[79].batteryStats 	"account 3" 	0
scalar Forest.networkOne[79].batteryStats 	account 	4
scalar Forest.networkOne[79].batteryStats 	"energy (mWs)" 	0
scalar Forest.networkOne[79].batteryStats 	"time (s)" 	0
scalar Forest.networkOne[79].batteryStats 	"account 4" 	0
scalar Forest.networkOne[80].nic.mac 	nbTxFrames 	0
scalar Forest.networkOne[80].nic.mac 	nbRxFrames 	0
scalar Forest.networkOne[80].nic.mac 	nbDroppedFrames 	0
scalar Forest.networkOne[80].nic.mac 	nbMissedAcks 	0
scalar Forest.networkOne[80].nic.mac 	nbRecvdAcks 	0
scalar Forest.networkOne[80].nic.mac 	nbTxAcks 	0
scalar Forest.networkOne[80].nic.mac 	nbDuplicates 	0
scalar Forest.networkOne[80].nic.mac 	meanBackoff 	0
scalar Forest.networkOne[80].nic.mac 	nbBackoffs 	0
scalar Forest.networkOne[80].nic.mac 	backoffDurations 	0
scalar Forest.networkOne[80].nic.phy 	nbFramesWithInterference 	0
scalar Forest.networkOne[80].nic.phy 	nbFramesWithoutInterference 	0
scalar Forest.networkOne[80].nic.phy 	nbFramesWithInterferencePartial 	0
scalar Forest.networkOne[80].nic.phy 	nbFramesWithoutInterferencePartial 	0
scalar Forest.networkOne[80].nic.phy 	nbFramesWithInterferenceDropped 	0
scalar Forest.networkOne[80].nic.phy 	nbFramesWithoutInterferenceDropped 	0
scalar Forest.networkOne[80].netwl 	nbDataPacketsForwarded 	0
scalar Forest.networkOne[80].netwl 	nbDataPacketsReceived 	0
scalar Forest.networkOne[80].netwl 	nbDataPacketsSent 	0
scalar Forest.networkOne[80].netwl 	nbDuplicatedFloodsReceived 	0
scalar Forest.networkOne[80].netwl 	nbFloodsSent 	0
scalar Forest.networkOne[80].netwl 	nbPureUnicastSent 	0
scalar Forest.networkOne[80].netwl 	nbRouteFloodsSent 	0
scalar Forest.networkOne[80].netwl 	nbRouteFloodsReceived 	0
scalar Forest.networkOne[80].netwl 	nbUnicastFloodForwarded 	0
scalar Forest.networkOne[80].netwl 	nbPureUnicastForwarded 	0
scalar Forest.networkOne[80].netwl 	nbGetRouteFailures 	0
scalar Forest.networkOne[80].netwl 	nbRoutesRecorded 	0
scalar Forest.networkOne[80].netwl 	meanNbHops 	-nan
scalar Forest.networkOne[80].tranl 	nbAggrPktReceived 	0
scalar Forest.networkOne[80].tranl 	"nbAggrPktSentDown " 	0
scalar Forest.networkOne[80].appl 	"activity duration" 	-1
attr unit  s
scalar Forest.networkOne[80].appl 	firstPacketGeneration 	-1
attr unit  s
scalar Forest.networkOne[80].appl 	lastPacketReception 	-2
attr unit  s
scalar Forest.networkOne[80].appl 	nbPacketsSent 	0
scalar Forest.networkOne[80].appl 	nbPacketsReceived 	0
statistic Forest.networkOne[80].appl 	latency
field count 0
field mean 0
field stddev -nan
field sum 0
field sqrsum 0
field min 0
field max 0
scalar Forest.networkOne[80].batteryStats 	nominal 	10800000
attr unit  mW-s
scalar Forest.networkOne[80].batteryStats 	total 	0.31568877585232
attr unit  mW-s
scalar Forest.networkOne[80].batteryStats 	lifetime 	-1
attr unit  s
scalar Forest.networkOne[80].batteryStats 	"Mean power consumption" 	6.299999854325e-05
attr unit  mW
scalar Forest.networkOne[80].batteryStats 	"num devices" 	1
scalar Forest.networkOne[80].batteryStats 	"physical layer" 	0
scalar Forest.networkOne[80].batteryStats 	"device total (mWs)" 	0.315688783152
scalar Forest.networkOne[80].batteryStats 	account 	0
scalar Forest.networkOne[80].batteryStats 	"energy (mWs)" 	0.315688783152
scalar Forest.networkOne[80].batteryStats 	"time (s)" 	5010.9330659048
scalar Forest.networkOne[80].batteryStats 	"account 0" 	0.315688783152
scalar Forest.networkOne[80].batteryStats 	account 	1
scalar Forest.networkOne[80].batteryStats 	"energy (mWs)" 	0
scalar Forest.networkOne[80].batteryStats 	"time (s)" 	0
scalar Forest.networkOne[80].batteryStats 	"account 1" 	0
scalar Forest.networkOne[80].batteryStats 	account 	2
scalar Forest.networkOne[80].batteryStats 	"energy (mWs)" 	0
scalar Forest.networkOne[80].batteryStats 	"time (s)" 	0
scalar Forest.networkOne[80].batteryStats 	"account 2" 	0
scalar Forest.networkOne[80].batteryStats 	account 	3
scalar Forest.networkOne[80].batteryStats 	"energy (mWs)" 	0
scalar Forest.networkOne[80].batteryStats 	"time (s)" 	0
scalar Forest.networkOne[80].batteryStats 	"account 3" 	0
scalar Forest.networkOne[80].batteryStats 	account 	4
scalar Forest.networkOne[80].batteryStats 	"energy (mWs)" 	0
scalar Forest.networkOne[80].batteryStats 	"time (s)" 	0
scalar Forest.networkOne[80].batteryStats 	"account 4" 	0
