version 2
run Nodes_in_grid-2-20130621-10:34:26-14886
attr configname Nodes_in_grid
attr datetime 20130621-10:34:26
attr experiment Nodes_in_grid
attr inifile omnetpp.ini
attr iterationvars "$0=5000, $1=5000, $2=5000, $3=5000, $4=5000, $5=5000, $6=5000, $7=5000, $8=5000, $9=2500, $10=0, $11=0, $12=0, $13=0, $14=0, $15=0, $16=0, $17=0, $18=0, $19=0, $plan=3, $sensitivity=-100dBm, $20=0"
attr iterationvars2 "$0=5000, $1=5000, $2=5000, $3=5000, $4=5000, $5=5000, $6=5000, $7=5000, $8=5000, $9=2500, $10=0, $11=0, $12=0, $13=0, $14=0, $15=0, $16=0, $17=0, $18=0, $19=0, $plan=3, $sensitivity=-100dBm, $20=0, $repetition=0"
attr measurement "$0=5000, $1=5000, $2=5000, $3=5000, $4=5000, $5=5000, $6=5000, $7=5000, $8=5000, $9=2500, $10=0, $11=0, $12=0, $13=0, $14=0, $15=0, $16=0, $17=0, $18=0, $19=0, $plan=3, $sensitivity=-100dBm, $20=0"
attr network Forest
attr plan 3
attr processid 14886
attr repetition 0
attr replication #0
attr resultdir results
attr runnumber 2
attr seedset 2
attr sensitivity -100dBm

scalar . 	plan 	3
scalar . 	sensitivity 	-100
attr unit  dBm
scalar Forest.networkOne[0].nic.mac 	nbTxFrames 	2486
scalar Forest.networkOne[0].nic.mac 	nbRxFrames 	126193
scalar Forest.networkOne[0].nic.mac 	nbDroppedFrames 	19
scalar Forest.networkOne[0].nic.mac 	nbMissedAcks 	0
scalar Forest.networkOne[0].nic.mac 	nbRecvdAcks 	0
scalar Forest.networkOne[0].nic.mac 	nbTxAcks 	0
scalar Forest.networkOne[0].nic.mac 	nbDuplicates 	0
scalar Forest.networkOne[0].nic.mac 	meanBackoff 	0.0015672505614373
scalar Forest.networkOne[0].nic.mac 	nbBackoffs 	3117
scalar Forest.networkOne[0].nic.mac 	backoffDurations 	4.88512
scalar Forest.networkOne[0].nic.phy 	nbFramesWithInterference 	17808
scalar Forest.networkOne[0].nic.phy 	nbFramesWithoutInterference 	141973
scalar Forest.networkOne[0].nic.phy 	nbFramesWithInterferencePartial 	6143
scalar Forest.networkOne[0].nic.phy 	nbFramesWithoutInterferencePartial 	1489
scalar Forest.networkOne[0].nic.phy 	nbFramesWithInterferenceDropped 	5964
scalar Forest.networkOne[0].nic.phy 	nbFramesWithoutInterferenceDropped 	20062
scalar Forest.networkOne[0].netwl 	nbDataPacketsForwarded 	0
scalar Forest.networkOne[0].netwl 	nbDataPacketsReceived 	103421
scalar Forest.networkOne[0].netwl 	nbDataPacketsSent 	2500
scalar Forest.networkOne[0].netwl 	nbDuplicatedFloodsReceived 	23758
scalar Forest.networkOne[0].netwl 	nbFloodsSent 	2505
scalar Forest.networkOne[0].netwl 	nbPureUnicastSent 	0
scalar Forest.networkOne[0].netwl 	nbRouteFloodsSent 	5
scalar Forest.networkOne[0].netwl 	nbRouteFloodsReceived 	0
scalar Forest.networkOne[0].netwl 	nbUnicastFloodForwarded 	0
scalar Forest.networkOne[0].netwl 	nbPureUnicastForwarded 	0
scalar Forest.networkOne[0].netwl 	nbGetRouteFailures 	2500
scalar Forest.networkOne[0].netwl 	nbRoutesRecorded 	0
scalar Forest.networkOne[0].netwl 	meanNbHops 	0.5610659343847
scalar Forest.networkOne[0].tranl 	nbAggrPktReceived 	0
scalar Forest.networkOne[0].tranl 	"nbAggrPktSentDown " 	0
scalar Forest.networkOne[0].appl 	latency1 	0.0056580290306596
attr unit  s
statistic Forest.networkOne[0].appl 	1
field count 2432
field mean 0.0056580290306596
field stddev 0.0046231078709356
field sum 13.760326602564
field sqrsum 0.12981439763378
field min 0.003232
field max 0.060884249299
scalar Forest.networkOne[0].appl 	latency2 	0.0054926548803665
attr unit  s
statistic Forest.networkOne[0].appl 	2
field count 2401
field mean 0.0054926548803665
field stddev 0.0041264270556073
field sum 13.18786436776
field sqrsum 0.11330214816978
field min 0.003232
field max 0.05108086398
scalar Forest.networkOne[0].appl 	latency3 	0.0055085615130652
attr unit  s
statistic Forest.networkOne[0].appl 	3
field count 2210
field mean 0.0055085615130652
field stddev 0.004020186327358
field sum 12.173920943874
field sqrsum 0.10276242529217
field min 0.003232
field max 0.049335614479
scalar Forest.networkOne[0].appl 	latency4 	0.0055392483226795
attr unit  s
statistic Forest.networkOne[0].appl 	4
field count 1719
field mean 0.0055392483226795
field stddev 0.0042257517431303
field sum 9.521967866686
field sqrsum 0.083422832385218
field min 0.003232
field max 0.047989966639
scalar Forest.networkOne[0].appl 	latency5 	0.0055333165583162
attr unit  s
statistic Forest.networkOne[0].appl 	5
field count 1265
field mean 0.0055333165583162
field stddev 0.0042242776371393
field sum 6.99964544627
field sqrsum 0.061286729296511
field min 0.003232
field max 0.047717743456
scalar Forest.networkOne[0].appl 	latency6 	0.0056340902856629
attr unit  s
statistic Forest.networkOne[0].appl 	6
field count 786
field mean 0.0056340902856629
field stddev 0.0047423811539009
field sum 4.428394964531
field sqrsum 0.042604767572709
field min 0.003232
field max 0.060221352806
scalar Forest.networkOne[0].appl 	latency7 	0.010764921339623
attr unit  s
statistic Forest.networkOne[0].appl 	7
field count 1140
field mean 0.010764921339623
field stddev 0.0050956174528236
field sum 12.27201032717
field sqrsum 0.16168172217089
field min 0.006464
field max 0.055862896164
scalar Forest.networkOne[0].appl 	latency8 	0.010836267057702
attr unit  s
statistic Forest.networkOne[0].appl 	8
field count 761
field mean 0.010836267057702
field stddev 0.0055588454691658
field sum 8.246399230911
field sqrsum 0.11284476417263
field min 0.006464
field max 0.062262385121
scalar Forest.networkOne[0].appl 	latency9 	0.0055594324497751
attr unit  s
statistic Forest.networkOne[0].appl 	9
field count 2450
field mean 0.0055594324497751
field stddev 0.0037624101106022
field sum 13.620609501949
field sqrsum 0.1103902408299
field min 0.003232
field max 0.045381712828
scalar Forest.networkOne[0].appl 	latency10 	0.0051107912967164
attr unit  s
statistic Forest.networkOne[0].appl 	10
field count 3808
field mean 0.0051107912967164
field stddev 0.0034638940069662
field sum 19.461893257896
field sqrsum 0.1451441990396
field min 0.003232
field max 0.050829367065
scalar Forest.networkOne[0].appl 	latency11 	0.0055274096802748
attr unit  s
statistic Forest.networkOne[0].appl 	11
field count 2373
field mean 0.0055274096802748
field stddev 0.0039258158980055
field sum 13.116543171292
field sqrsum 0.1090578439598
field min 0.003232
field max 0.065274002627
scalar Forest.networkOne[0].appl 	latency12 	0.0054388542290288
attr unit  s
statistic Forest.networkOne[0].appl 	12
field count 2116
field mean 0.0054388542290288
field stddev 0.0036857253816194
field sum 11.508615548625
field sqrsum 0.091325051257035
field min 0.003232
field max 0.044017928895
scalar Forest.networkOne[0].appl 	latency13 	0.010888466401819
attr unit  s
statistic Forest.networkOne[0].appl 	13
field count 1820
field mean 0.010888466401819
field stddev 0.0049263103583275
field sum 19.817008851311
field sqrsum 0.25992129794706
field min 0.006464
field max 0.05861615767
scalar Forest.networkOne[0].appl 	latency14 	0.0052924188659347
attr unit  s
statistic Forest.networkOne[0].appl 	14
field count 1209
field mean 0.0052924188659347
field stddev 0.0034168183050198
field sum 6.398534408915
field sqrsum 0.047966698194132
field min 0.003232
field max 0.04909338248
scalar Forest.networkOne[0].appl 	latency15 	0.011004896874612
attr unit  s
statistic Forest.networkOne[0].appl 	15
field count 1578
field mean 0.011004896874612
field stddev 0.0052793865486908
field sum 17.365727268137
field sqrsum 0.23506205925367
field min 0.006464
field max 0.066900810693
scalar Forest.networkOne[0].appl 	latency16 	0.01072467011268
attr unit  s
statistic Forest.networkOne[0].appl 	16
field count 515
field mean 0.01072467011268
field stddev 0.005567499057364
field sum 5.52320510803
field sqrsum 0.075167034265716
field min 0.006464
field max 0.064523114844
scalar Forest.networkOne[0].appl 	latency17 	0.010503810619781
attr unit  s
statistic Forest.networkOne[0].appl 	17
field count 768
field mean 0.010503810619781
field stddev 0.0044468520625802
field sum 8.066926555992
field sqrsum 0.09990050516321
field min 0.006464
field max 0.046913376881
scalar Forest.networkOne[0].appl 	latency18 	0.0054561727683784
attr unit  s
statistic Forest.networkOne[0].appl 	18
field count 2392
field mean 0.0054561727683784
field stddev 0.0039381155676647
field sum 13.051165261961
field sqrsum 0.10829084384818
field min 0.003232
field max 0.052749369372
scalar Forest.networkOne[0].appl 	latency19 	0.0054153690619634
attr unit  s
statistic Forest.networkOne[0].appl 	19
field count 2350
field mean 0.0054153690619634
field stddev 0.0035857040048626
field sum 12.726117295614
field sqrsum 0.099118356653022
field min 0.003232
field max 0.053018155507
scalar Forest.networkOne[0].appl 	latency20 	0.0054899740594224
attr unit  s
statistic Forest.networkOne[0].appl 	20
field count 2221
field mean 0.0054899740594224
field stddev 0.0038191687067654
field sum 12.193232385977
field sqrsum 0.099321559635357
field min 0.003232
field max 0.048143327332
scalar Forest.networkOne[0].appl 	latency21 	0.0059184087139943
attr unit  s
statistic Forest.networkOne[0].appl 	21
field count 1919
field mean 0.0059184087139943
field stddev 0.0046039221926508
field sum 11.357426322155
field sqrsum 0.10787200986197
field min 0.003232
field max 0.0477590985
scalar Forest.networkOne[0].appl 	latency22 	0.011031527134631
attr unit  s
statistic Forest.networkOne[0].appl 	22
field count 1861
field mean 0.011031527134631
field stddev 0.0056274398079116
field sum 20.529671997548
field sqrsum 0.28537626025852
field min 0.006464
field max 0.060998662415
scalar Forest.networkOne[0].appl 	latency23 	0.0055041113583908
attr unit  s
statistic Forest.networkOne[0].appl 	23
field count 1021
field mean 0.0055041113583908
field stddev 0.0036002063253087
field sum 5.619697696917
field sqrsum 0.044152157220812
field min 0.003232
field max 0.04481173198
scalar Forest.networkOne[0].appl 	latency24 	0.010909652535548
attr unit  s
statistic Forest.networkOne[0].appl 	24
field count 1577
field mean 0.010909652535548
field stddev 0.0051766519176065
field sum 17.204522048559
field sqrsum 0.22992857230982
field min 0.006464
field max 0.055704266428
scalar Forest.networkOne[0].appl 	latency25 	0.010825631864485
attr unit  s
statistic Forest.networkOne[0].appl 	25
field count 1275
field mean 0.010825631864485
field stddev 0.005313214191856
field sum 13.802680627218
field sqrsum 0.18538807140516
field min 0.006464
field max 0.067963164787
scalar Forest.networkOne[0].appl 	latency26 	0.011069712641825
attr unit  s
statistic Forest.networkOne[0].appl 	26
field count 993
field mean 0.011069712641825
field stddev 0.0057482039232782
field sum 10.992224653332
field sqrsum 0.15445828176361
field min 0.006464
field max 0.069918453679
scalar Forest.networkOne[0].appl 	latency27 	0.0056766648009515
attr unit  s
statistic Forest.networkOne[0].appl 	27
field count 2166
field mean 0.0056766648009515
field stddev 0.0043986022048424
field sum 12.295655958861
field sqrsum 0.11168609082298
field min 0.003232
field max 0.051821279394
scalar Forest.networkOne[0].appl 	latency28 	0.0057113736926003
attr unit  s
statistic Forest.networkOne[0].appl 	28
field count 2079
field mean 0.0057113736926003
field stddev 0.0047789135285645
field sum 11.873945906916
field sqrsum 0.11527393643917
field min 0.003232
field max 0.053320173257
scalar Forest.networkOne[0].appl 	latency29 	0.011066441887861
attr unit  s
statistic Forest.networkOne[0].appl 	29
field count 1854
field mean 0.011066441887861
field stddev 0.0055816147426576
field sum 20.517183260094
field sqrsum 0.28478136232042
field min 0.006464
field max 0.0607883014
scalar Forest.networkOne[0].appl 	latency30 	0.010958503998946
attr unit  s
statistic Forest.networkOne[0].appl 	30
field count 1847
field mean 0.010958503998946
field stddev 0.0053590814750713
field sum 20.240356886053
field sqrsum 0.27482069823331
field min 0.006464
field max 0.06698367384
scalar Forest.networkOne[0].appl 	latency31 	0.011031953303871
attr unit  s
statistic Forest.networkOne[0].appl 	31
field count 1800
field mean 0.011031953303871
field stddev 0.0055403516304519
field sum 19.857515946967
field sqrsum 0.27428838630191
field min 0.006464
field max 0.056258068619
scalar Forest.networkOne[0].appl 	latency32 	0.010784003952332
attr unit  s
statistic Forest.networkOne[0].appl 	32
field count 1785
field mean 0.010784003952332
field stddev 0.0048972295069344
field sum 19.249447054913
field sqrsum 0.25037152972935
field min 0.006464
field max 0.049664
scalar Forest.networkOne[0].appl 	latency33 	0.010964586540079
attr unit  s
statistic Forest.networkOne[0].appl 	33
field count 1599
field mean 0.010964586540079
field stddev 0.005205704732212
field sum 17.532373877587
field sqrsum 0.23554001072467
field min 0.006464
field max 0.060669844052
scalar Forest.networkOne[0].appl 	latency34 	0.010809419035431
attr unit  s
statistic Forest.networkOne[0].appl 	34
field count 1249
field mean 0.010809419035431
field stddev 0.005323215444204
field sum 13.500964375253
field sqrsum 0.18130168640097
field min 0.006464
field max 0.054678372452
scalar Forest.networkOne[0].appl 	latency35 	0.010898485773474
attr unit  s
statistic Forest.networkOne[0].appl 	35
field count 838
field mean 0.010898485773474
field stddev 0.005369695754077
field sum 9.132931078171
field sqrsum 0.12366886982082
field min 0.006464
field max 0.058895921173
scalar Forest.networkOne[0].appl 	latency36 	0.0055710570418873
attr unit  s
statistic Forest.networkOne[0].appl 	36
field count 1765
field mean 0.0055710570418873
field stddev 0.0043557127074425
field sum 9.832915678931
field sqrsum 0.088246753482157
field min 0.003232
field max 0.05894527365
scalar Forest.networkOne[0].appl 	latency37 	0.005111182832821
attr unit  s
statistic Forest.networkOne[0].appl 	37
field count 2598
field mean 0.005111182832821
field stddev 0.0032267877161215
field sum 13.278852999669
field sqrsum 0.094911022323341
field min 0.003232
field max 0.048800875927
scalar Forest.networkOne[0].appl 	latency38 	0.0054687528115236
attr unit  s
statistic Forest.networkOne[0].appl 	38
field count 1503
field mean 0.0054687528115236
field stddev 0.0042739070645404
field sum 8.21953547572
field sqrsum 0.072386562699947
field min 0.003232
field max 0.055603293442
scalar Forest.networkOne[0].appl 	latency39 	0.0054783863193397
attr unit  s
statistic Forest.networkOne[0].appl 	39
field count 1251
field mean 0.0054783863193397
field stddev 0.0037068221321275
field sum 6.853461285494
field sqrsum 0.054721571445613
field min 0.003232
field max 0.041145224802
scalar Forest.networkOne[0].appl 	latency40 	0.011056638764357
attr unit  s
statistic Forest.networkOne[0].appl 	40
field count 1753
field mean 0.011056638764357
field stddev 0.0052890701706993
field sum 19.382287753918
field sqrsum 0.26331386337195
field min 0.006464
field max 0.063470486764
scalar Forest.networkOne[0].appl 	latency41 	0.0054928836801903
attr unit  s
statistic Forest.networkOne[0].appl 	41
field count 657
field mean 0.0054928836801903
field stddev 0.0041821366070811
field sum 3.608824577885
field sqrsum 0.031296468518323
field min 0.003232
field max 0.05139137328
scalar Forest.networkOne[0].appl 	latency42 	0.010815979431406
attr unit  s
statistic Forest.networkOne[0].appl 	42
field count 1405
field mean 0.010815979431406
field stddev 0.0052970380677256
field sum 15.196451101126
field sqrsum 0.20375879419662
field min 0.006464
field max 0.061794125171
scalar Forest.networkOne[0].appl 	latency43 	0.010837387067388
attr unit  s
statistic Forest.networkOne[0].appl 	43
field count 1138
field mean 0.010837387067388
field stddev 0.0050257709503729
field sum 12.332946482687
field sqrsum 0.16237568554932
field min 0.006464
field max 0.052517234691
scalar Forest.networkOne[0].appl 	latency44 	0.010832676308204
attr unit  s
statistic Forest.networkOne[0].appl 	44
field count 819
field mean 0.010832676308204
field stddev 0.0054665151465983
field sum 8.871961896419
field sqrsum 0.12055121190228
field min 0.006464
field max 0.052102226986
scalar Forest.networkOne[0].appl 	latency45 	0.010764293807234
attr unit  s
statistic Forest.networkOne[0].appl 	45
field count 2063
field mean 0.010764293807234
field stddev 0.0052796185609364
field sum 22.206738124324
field sqrsum 0.29651680904174
field min 0.006464
field max 0.056922490408
scalar Forest.networkOne[0].appl 	latency46 	0.011079088780447
attr unit  s
statistic Forest.networkOne[0].appl 	46
field count 1390
field mean 0.011079088780447
field stddev 0.0055160248717715
field sum 15.399933404822
field sqrsum 0.21287968011116
field min 0.006464
field max 0.060672434689
scalar Forest.networkOne[0].appl 	latency47 	0.0053836918310959
attr unit  s
statistic Forest.networkOne[0].appl 	47
field count 1085
field mean 0.0053836918310959
field stddev 0.0037488874741326
field sum 5.841305636739
field sqrsum 0.046682495945826
field min 0.003232
field max 0.045500783685
scalar Forest.networkOne[0].appl 	latency48 	0.010687282809438
attr unit  s
statistic Forest.networkOne[0].appl 	48
field count 1490
field mean 0.010687282809438
field stddev 0.0049640272908019
field sum 15.924051386063
field sqrsum 0.20687613381424
field min 0.006464
field max 0.050707135421
scalar Forest.networkOne[0].appl 	latency49 	0.010651488412514
attr unit  s
statistic Forest.networkOne[0].appl 	49
field count 1551
field mean 0.010651488412514
field stddev 0.0046739880353786
field sum 16.520458527809
field sqrsum 0.20982902701841
field min 0.006464
field max 0.051806739548
scalar Forest.networkOne[0].appl 	latency50 	0.010547245453836
attr unit  s
statistic Forest.networkOne[0].appl 	50
field count 641
field mean 0.010547245453836
field stddev 0.0047380037157993
field sum 6.760784335909
field sqrsum 0.085674806546277
field min 0.006464
field max 0.05496068496
scalar Forest.networkOne[0].appl 	latency51 	0.01094478956787
attr unit  s
statistic Forest.networkOne[0].appl 	51
field count 914
field mean 0.01094478956787
field stddev 0.0055253464635269
field sum 10.003537665033
field sqrsum 0.1373600057619
field min 0.006464
field max 0.058438750402
scalar Forest.networkOne[0].appl 	latency52 	0.010907325974626
attr unit  s
statistic Forest.networkOne[0].appl 	52
field count 921
field mean 0.010907325974626
field stddev 0.0052024769552489
field sum 10.045647222631
field sqrsum 0.13447165403564
field min 0.006464
field max 0.055840184352
scalar Forest.networkOne[0].appl 	latency53 	0.010548663998031
attr unit  s
statistic Forest.networkOne[0].appl 	53
field count 579
field mean 0.010548663998031
field stddev 0.005157944117041
field sum 6.10767645486
field sqrsum 0.079805162714395
field min 0.006464
field max 0.053299349126
scalar Forest.networkOne[0].appl 	latency54 	0.0057299600351589
attr unit  s
statistic Forest.networkOne[0].appl 	54
field count 818
field mean 0.0057299600351589
field stddev 0.0043782713770146
field sum 4.68710730876
field sqrsum 0.042518223184588
field min 0.003232
field max 0.044756193249
scalar Forest.networkOne[0].appl 	latency55 	0.010513948886941
attr unit  s
statistic Forest.networkOne[0].appl 	55
field count 1177
field mean 0.010513948886941
field stddev 0.0045778247863576
field sum 12.37491783993
field sqrsum 0.15475407386404
field min 0.006464
field max 0.054560026889
scalar Forest.networkOne[0].appl 	latency56 	0.01063931466281
attr unit  s
statistic Forest.networkOne[0].appl 	56
field count 1150
field mean 0.01063931466281
field stddev 0.0047436243657421
field sum 12.235211862232
field sqrsum 0.15602903493807
field min 0.006464
field max 0.05355087073
scalar Forest.networkOne[0].appl 	latency57 	0.010931329485907
attr unit  s
statistic Forest.networkOne[0].appl 	57
field count 1233
field mean 0.010931329485907
field stddev 0.0055908425467741
field sum 13.478329256123
field sqrsum 0.18584532312985
field min 0.006464
field max 0.065091698296
scalar Forest.networkOne[0].appl 	latency58 	0.01112241356599
attr unit  s
statistic Forest.networkOne[0].appl 	58
field count 1231
field mean 0.01112241356599
field stddev 0.0054744064655501
field sum 13.691691099734
field sqrsum 0.1891466759936
field min 0.006464
field max 0.056384
scalar Forest.networkOne[0].appl 	latency59 	0.01098380604586
attr unit  s
statistic Forest.networkOne[0].appl 	59
field count 1148
field mean 0.01098380604586
field stddev 0.0053999317675215
field sum 12.609409340647
field sqrsum 0.17194498131921
field min 0.006464
field max 0.053038142867
scalar Forest.networkOne[0].appl 	latency60 	0.010521733198076
attr unit  s
statistic Forest.networkOne[0].appl 	60
field count 631
field mean 0.010521733198076
field stddev 0.0044350413512251
field sum 6.639213647986
field sqrsum 0.082247877474992
field min 0.006464
field max 0.039424
scalar Forest.networkOne[0].appl 	latency61 	0.01118248613347
attr unit  s
statistic Forest.networkOne[0].appl 	61
field count 723
field mean 0.01118248613347
field stddev 0.0062187939351141
field sum 8.084937474499
field sqrsum 0.11833189455991
field min 0.006464
field max 0.064210735696
scalar Forest.networkOne[0].appl 	latency62 	0.010995825857214
attr unit  s
statistic Forest.networkOne[0].appl 	62
field count 505
field mean 0.010995825857214
field stddev 0.0050243014299111
field sum 5.552892057893
field sqrsum 0.073781410921235
field min 0.006464
field max 0.044961903707
scalar Forest.networkOne[0].appl 	latency63 	0.0054264459859412
attr unit  s
statistic Forest.networkOne[0].appl 	63
field count 510
field mean 0.0054264459859412
field stddev 0.0033181047824324
field sum 2.76748745283
field sqrsum 0.020621619227277
field min 0.003232
field max 0.035359346648
scalar Forest.networkOne[0].appl 	latency64 	0.010925857383915
attr unit  s
statistic Forest.networkOne[0].appl 	64
field count 755
field mean 0.010925857383915
field stddev 0.0051800503633669
field sum 8.249022324856
field sqrsum 0.11035966449044
field min 0.006464
field max 0.046972708059
scalar Forest.networkOne[0].appl 	latency65 	0.010841258328871
attr unit  s
statistic Forest.networkOne[0].appl 	65
field count 884
field mean 0.010841258328871
field stddev 0.0050774273129958
field sum 9.583672362722
field sqrsum 0.12666304457239
field min 0.006464
field max 0.052579588196
scalar Forest.networkOne[0].appl 	latency66 	0.016008858376018
attr unit  s
statistic Forest.networkOne[0].appl 	66
field count 1264
field mean 0.016008858376018
field stddev 0.0057696581658551
field sum 20.235196987287
field sqrsum 0.36598635338839
field min 0.009696
field max 0.058782958782
scalar Forest.networkOne[0].appl 	latency67 	0.010536058126861
attr unit  s
statistic Forest.networkOne[0].appl 	67
field count 674
field mean 0.010536058126861
field stddev 0.0048485475750908
field sum 7.101303177504
field sqrsum 0.090640905399311
field min 0.006464
field max 0.057406854416
scalar Forest.networkOne[0].appl 	latency68 	0.010755544788902
attr unit  s
statistic Forest.networkOne[0].appl 	68
field count 604
field mean 0.010755544788902
field stddev 0.0049495827796663
field sum 6.496349052497
field sqrsum 0.084644290123215
field min 0.006464
field max 0.052572793284
scalar Forest.networkOne[0].appl 	latency69 	0.011108748418935
attr unit  s
statistic Forest.networkOne[0].appl 	69
field count 539
field mean 0.011108748418935
field stddev 0.0058640143801098
field sum 5.987615397806
field sqrsum 0.085014938665341
field min 0.006464
field max 0.059391228407
scalar Forest.networkOne[0].appl 	latency70 	0.010794816157685
attr unit  s
statistic Forest.networkOne[0].appl 	70
field count 521
field mean 0.010794816157685
field stddev 0.0054203707160476
field sum 5.624099218154
field sqrsum 0.075988934836234
field min 0.006464
field max 0.04903089713
scalar Forest.networkOne[0].appl 	latency71 	0.010309773494382
attr unit  s
statistic Forest.networkOne[0].appl 	71
field count 434
field mean 0.010309773494382
field stddev 0.0041144970681705
field sum 4.474441696562
field sqrsum 0.05346077469706
field min 0.006464
field max 0.044309747458
scalar Forest.networkOne[0].appl 	latency72 	0.010854281630398
attr unit  s
statistic Forest.networkOne[0].appl 	72
field count 1072
field mean 0.010854281630398
field stddev 0.0055792993281752
field sum 11.635789907787
field sqrsum 0.15963685089517
field min 0.006464
field max 0.059584
scalar Forest.networkOne[0].appl 	latency73 	0.010934872409175
attr unit  s
statistic Forest.networkOne[0].appl 	73
field count 1012
field mean 0.010934872409175
field stddev 0.0053140414547522
field sum 11.066090878085
field sqrsum 0.14955595780543
field min 0.006464
field max 0.050283511907
scalar Forest.networkOne[0].appl 	latency74 	0.015993585094483
attr unit  s
statistic Forest.networkOne[0].appl 	74
field count 445
field mean 0.015993585094483
field stddev 0.0063135743499299
field sum 7.117145367045
field sqrsum 0.13152705221365
field min 0.010016
field max 0.060897332154
scalar Forest.networkOne[0].appl 	latency75 	0.010575190411473
attr unit  s
statistic Forest.networkOne[0].appl 	75
field count 746
field mean 0.010575190411473
field stddev 0.0044897096240503
field sum 7.889092046959
field sqrsum 0.098445982488906
field min 0.006464
field max 0.052190429718
scalar Forest.networkOne[0].appl 	latency76 	0.010614879197057
attr unit  s
statistic Forest.networkOne[0].appl 	76
field count 456
field mean 0.010614879197057
field stddev 0.0045231028635947
field sum 4.840384913858
field sqrsum 0.06068870020703
field min 0.006464
field max 0.04646977681
scalar Forest.networkOne[0].appl 	latency77 	0.010789910328498
attr unit  s
statistic Forest.networkOne[0].appl 	77
field count 460
field mean 0.010789910328498
field stddev 0.0050423539935569
field sum 4.963358751109
field sqrsum 0.065224424065151
field min 0.006784
field max 0.051708202011
scalar Forest.networkOne[0].appl 	latency78 	0.010764813533856
attr unit  s
statistic Forest.networkOne[0].appl 	78
field count 333
field mean 0.010764813533856
field stddev 0.0046543142797307
field sum 3.584682906774
field sqrsum 0.045780440019038
field min 0.006464
field max 0.046115102705
scalar Forest.networkOne[0].appl 	latency79 	0.010291507431919
attr unit  s
statistic Forest.networkOne[0].appl 	79
field count 221
field mean 0.010291507431919
field stddev 0.0035558372434327
field sum 2.274423142454
field sqrsum 0.026188917944285
field min 0.006464
field max 0.028224
scalar Forest.networkOne[0].appl 	latency80 	0.011162957976549
attr unit  s
statistic Forest.networkOne[0].appl 	80
field count 175
field mean 0.011162957976549
field stddev 0.0059638019538598
field sum 1.953517645896
field sqrsum 0.027995681859189
field min 0.006784
field max 0.05136246499
scalar Forest.networkOne[0].appl 	"activity duration" 	4999.9142744017
attr unit  s
scalar Forest.networkOne[0].appl 	firstPacketGeneration 	10.025926227914
attr unit  s
scalar Forest.networkOne[0].appl 	lastPacketReception 	5009.9402006297
attr unit  s
scalar Forest.networkOne[0].appl 	nbPacketsSent 	2500
scalar Forest.networkOne[0].appl 	nbPacketsReceived 	103421
statistic Forest.networkOne[0].appl 	latency
field count 103421
field mean 0.0084966443873497
field stddev 0.0055063705097589
field sum 878.73145918409
field sqrsum 10.601975137111
field min 0.003232
field max 0.069918453679
scalar Forest.networkOne[0].batteryStats 	nominal 	10800000
attr unit  mW-s
scalar Forest.networkOne[0].batteryStats 	total 	222149.00534235
attr unit  mW-s
scalar Forest.networkOne[0].batteryStats 	lifetime 	-1
attr unit  s
scalar Forest.networkOne[0].batteryStats 	"Mean power consumption" 	44.337631471308
attr unit  mW
scalar Forest.networkOne[0].batteryStats 	"num devices" 	1
scalar Forest.networkOne[0].batteryStats 	"physical layer" 	0
scalar Forest.networkOne[0].batteryStats 	"device total (mWs)" 	222149.00534135
scalar Forest.networkOne[0].batteryStats 	account 	0
scalar Forest.networkOne[0].batteryStats 	"energy (mWs)" 	0.067496565447036
scalar Forest.networkOne[0].batteryStats 	"time (s)" 	1071.3740547149
scalar Forest.networkOne[0].batteryStats 	"account 0" 	0.067496565447036
scalar Forest.networkOne[0].batteryStats 	account 	1
scalar Forest.networkOne[0].batteryStats 	"energy (mWs)" 	221949.76317539
scalar Forest.networkOne[0].batteryStats 	"time (s)" 	3935.2794889252
scalar Forest.networkOne[0].batteryStats 	"account 1" 	221949.76317539
scalar Forest.networkOne[0].batteryStats 	account 	2
scalar Forest.networkOne[0].batteryStats 	"energy (mWs)" 	145.3248
scalar Forest.networkOne[0].batteryStats 	"time (s)" 	2.784
scalar Forest.networkOne[0].batteryStats 	"account 2" 	145.3248
scalar Forest.networkOne[0].batteryStats 	account 	3
scalar Forest.networkOne[0].batteryStats 	"energy (mWs)" 	53.849869401596
scalar Forest.networkOne[0].batteryStats 	"time (s)" 	0.956516
scalar Forest.networkOne[0].batteryStats 	"account 3" 	53.849869401596
scalar Forest.networkOne[0].batteryStats 	account 	4
scalar Forest.networkOne[0].batteryStats 	"energy (mWs)" 	0
scalar Forest.networkOne[0].batteryStats 	"time (s)" 	0
scalar Forest.networkOne[0].batteryStats 	"account 4" 	0
scalar Forest.networkOne[1].nic.mac 	nbTxFrames 	4235
scalar Forest.networkOne[1].nic.mac 	nbRxFrames 	16565
scalar Forest.networkOne[1].nic.mac 	nbDroppedFrames 	736
scalar Forest.networkOne[1].nic.mac 	nbMissedAcks 	0
scalar Forest.networkOne[1].nic.mac 	nbRecvdAcks 	0
scalar Forest.networkOne[1].nic.mac 	nbTxAcks 	0
scalar Forest.networkOne[1].nic.mac 	nbDuplicates 	0
scalar Forest.networkOne[1].nic.mac 	meanBackoff 	0.0027338421290031
scalar Forest.networkOne[1].nic.mac 	nbBackoffs 	11085
scalar Forest.networkOne[1].nic.mac 	backoffDurations 	30.304639999999
scalar Forest.networkOne[1].nic.phy 	nbFramesWithInterference 	18233
scalar Forest.networkOne[1].nic.phy 	nbFramesWithoutInterference 	157253
scalar Forest.networkOne[1].nic.phy 	nbFramesWithInterferencePartial 	6899
scalar Forest.networkOne[1].nic.phy 	nbFramesWithoutInterferencePartial 	1347
scalar Forest.networkOne[1].nic.phy 	nbFramesWithInterferenceDropped 	5759
scalar Forest.networkOne[1].nic.phy 	nbFramesWithoutInterferenceDropped 	18103
scalar Forest.networkOne[1].netwl 	nbDataPacketsForwarded 	2471
scalar Forest.networkOne[1].netwl 	nbDataPacketsReceived 	0
scalar Forest.networkOne[1].netwl 	nbDataPacketsSent 	2500
scalar Forest.networkOne[1].netwl 	nbDuplicatedFloodsReceived 	24966
scalar Forest.networkOne[1].netwl 	nbFloodsSent 	0
scalar Forest.networkOne[1].netwl 	nbPureUnicastSent 	2500
scalar Forest.networkOne[1].netwl 	nbRouteFloodsSent 	0
scalar Forest.networkOne[1].netwl 	nbRouteFloodsReceived 	3
scalar Forest.networkOne[1].netwl 	nbUnicastFloodForwarded 	2468
scalar Forest.networkOne[1].netwl 	nbPureUnicastForwarded 	0
scalar Forest.networkOne[1].netwl 	nbGetRouteFailures 	0
scalar Forest.networkOne[1].netwl 	nbRoutesRecorded 	1
scalar Forest.networkOne[1].netwl 	meanNbHops 	-nan
scalar Forest.networkOne[1].tranl 	nbAggrPktReceived 	0
scalar Forest.networkOne[1].tranl 	"nbAggrPktSentDown " 	0
scalar Forest.networkOne[1].appl 	"activity duration" 	-1
attr unit  s
scalar Forest.networkOne[1].appl 	firstPacketGeneration 	-1
attr unit  s
scalar Forest.networkOne[1].appl 	lastPacketReception 	-2
attr unit  s
scalar Forest.networkOne[1].appl 	nbPacketsSent 	2500
scalar Forest.networkOne[1].appl 	nbPacketsReceived 	0
statistic Forest.networkOne[1].appl 	latency
field count 0
field mean 0
field stddev -nan
field sum 0
field sqrsum 0
field min 0
field max 0
scalar Forest.networkOne[1].batteryStats 	nominal 	10800000
attr unit  mW-s
scalar Forest.networkOne[1].batteryStats 	total 	143868.28736582
attr unit  mW-s
scalar Forest.networkOne[1].batteryStats 	lifetime 	-1
attr unit  s
scalar Forest.networkOne[1].batteryStats 	"Mean power consumption" 	28.713966537027
attr unit  mW
scalar Forest.networkOne[1].batteryStats 	"num devices" 	1
scalar Forest.networkOne[1].batteryStats 	"physical layer" 	0
scalar Forest.networkOne[1].batteryStats 	"device total (mWs)" 	143868.28736407
scalar Forest.networkOne[1].batteryStats 	account 	0
scalar Forest.networkOne[1].batteryStats 	"energy (mWs)" 	0.15492880873122
scalar Forest.networkOne[1].batteryStats 	"time (s)" 	2459.1874401781
scalar Forest.networkOne[1].batteryStats 	"account 0" 	0.15492880873122
scalar Forest.networkOne[1].batteryStats 	account 	1
scalar Forest.networkOne[1].batteryStats 	"energy (mWs)" 	143528.81850086
scalar Forest.networkOne[1].batteryStats 	"time (s)" 	2544.8372074619
scalar Forest.networkOne[1].batteryStats 	"account 1" 	143528.81850086
scalar Forest.networkOne[1].batteryStats 	account 	2
scalar Forest.networkOne[1].batteryStats 	"energy (mWs)" 	247.58835839997
scalar Forest.networkOne[1].batteryStats 	"time (s)" 	4.743072
scalar Forest.networkOne[1].batteryStats 	"account 2" 	247.58835839997
scalar Forest.networkOne[1].batteryStats 	account 	3
scalar Forest.networkOne[1].batteryStats 	"energy (mWs)" 	91.725575999992
scalar Forest.networkOne[1].batteryStats 	"time (s)" 	1.62634
scalar Forest.networkOne[1].batteryStats 	"account 3" 	91.725575999992
scalar Forest.networkOne[1].batteryStats 	account 	4
scalar Forest.networkOne[1].batteryStats 	"energy (mWs)" 	0
scalar Forest.networkOne[1].batteryStats 	"time (s)" 	0
scalar Forest.networkOne[1].batteryStats 	"account 4" 	0
scalar Forest.networkOne[2].nic.mac 	nbTxFrames 	4116
scalar Forest.networkOne[2].nic.mac 	nbRxFrames 	16801
scalar Forest.networkOne[2].nic.mac 	nbDroppedFrames 	699
scalar Forest.networkOne[2].nic.mac 	nbMissedAcks 	0
scalar Forest.networkOne[2].nic.mac 	nbRecvdAcks 	0
scalar Forest.networkOne[2].nic.mac 	nbTxAcks 	0
scalar Forest.networkOne[2].nic.mac 	nbDuplicates 	0
scalar Forest.networkOne[2].nic.mac 	meanBackoff 	0.0026610239939542
scalar Forest.networkOne[2].nic.mac 	nbBackoffs 	10586
scalar Forest.networkOne[2].nic.mac 	backoffDurations 	28.1696
scalar Forest.networkOne[2].nic.phy 	nbFramesWithInterference 	18139
scalar Forest.networkOne[2].nic.phy 	nbFramesWithoutInterference 	164310
scalar Forest.networkOne[2].nic.phy 	nbFramesWithInterferencePartial 	7383
scalar Forest.networkOne[2].nic.phy 	nbFramesWithoutInterferencePartial 	1150
scalar Forest.networkOne[2].nic.phy 	nbFramesWithInterferenceDropped 	5382
scalar Forest.networkOne[2].nic.phy 	nbFramesWithoutInterferenceDropped 	16377
scalar Forest.networkOne[2].netwl 	nbDataPacketsForwarded 	2315
scalar Forest.networkOne[2].netwl 	nbDataPacketsReceived 	0
scalar Forest.networkOne[2].netwl 	nbDataPacketsSent 	2500
scalar Forest.networkOne[2].netwl 	nbDuplicatedFloodsReceived 	25075
scalar Forest.networkOne[2].netwl 	nbFloodsSent 	0
scalar Forest.networkOne[2].netwl 	nbPureUnicastSent 	2500
scalar Forest.networkOne[2].netwl 	nbRouteFloodsSent 	0
scalar Forest.networkOne[2].netwl 	nbRouteFloodsReceived 	2
scalar Forest.networkOne[2].netwl 	nbUnicastFloodForwarded 	2313
scalar Forest.networkOne[2].netwl 	nbPureUnicastForwarded 	0
scalar Forest.networkOne[2].netwl 	nbGetRouteFailures 	0
scalar Forest.networkOne[2].netwl 	nbRoutesRecorded 	1
scalar Forest.networkOne[2].netwl 	meanNbHops 	-nan
scalar Forest.networkOne[2].tranl 	nbAggrPktReceived 	0
scalar Forest.networkOne[2].tranl 	"nbAggrPktSentDown " 	0
scalar Forest.networkOne[2].appl 	"activity duration" 	-1
attr unit  s
scalar Forest.networkOne[2].appl 	firstPacketGeneration 	-1
attr unit  s
scalar Forest.networkOne[2].appl 	lastPacketReception 	-2
attr unit  s
scalar Forest.networkOne[2].appl 	nbPacketsSent 	2500
scalar Forest.networkOne[2].appl 	nbPacketsReceived 	0
statistic Forest.networkOne[2].appl 	latency
field count 0
field mean 0
field stddev -nan
field sum 0
field sqrsum 0
field min 0
field max 0
scalar Forest.networkOne[2].batteryStats 	nominal 	10800000
attr unit  mW-s
scalar Forest.networkOne[2].batteryStats 	total 	134396.96444506
attr unit  mW-s
scalar Forest.networkOne[2].batteryStats 	lifetime 	-1
attr unit  s
scalar Forest.networkOne[2].batteryStats 	"Mean power consumption" 	26.823631603681
attr unit  mW
scalar Forest.networkOne[2].batteryStats 	"num devices" 	1
scalar Forest.networkOne[2].batteryStats 	"physical layer" 	0
scalar Forest.networkOne[2].batteryStats 	"device total (mWs)" 	134396.96444323
scalar Forest.networkOne[2].batteryStats 	account 	0
scalar Forest.networkOne[2].batteryStats 	"energy (mWs)" 	0.16550911505144
scalar Forest.networkOne[2].batteryStats 	"time (s)" 	2627.1288103404
scalar Forest.networkOne[2].batteryStats 	"account 0" 	0.16550911505144
scalar Forest.networkOne[2].batteryStats 	account 	1
scalar Forest.networkOne[2].batteryStats 	"energy (mWs)" 	134067.01947011
scalar Forest.networkOne[2].batteryStats 	"time (s)" 	2377.0748132997
scalar Forest.networkOne[2].batteryStats 	"account 1" 	134067.01947011
scalar Forest.networkOne[2].batteryStats 	account 	2
scalar Forest.networkOne[2].batteryStats 	"energy (mWs)" 	240.63114239998
scalar Forest.networkOne[2].batteryStats 	"time (s)" 	4.609792
scalar Forest.networkOne[2].batteryStats 	"account 2" 	240.63114239998
scalar Forest.networkOne[2].batteryStats 	account 	3
scalar Forest.networkOne[2].batteryStats 	"energy (mWs)" 	89.148321599992
scalar Forest.networkOne[2].batteryStats 	"time (s)" 	1.580644
scalar Forest.networkOne[2].batteryStats 	"account 3" 	89.148321599992
scalar Forest.networkOne[2].batteryStats 	account 	4
scalar Forest.networkOne[2].batteryStats 	"energy (mWs)" 	0
scalar Forest.networkOne[2].batteryStats 	"time (s)" 	0
scalar Forest.networkOne[2].batteryStats 	"account 4" 	0
scalar Forest.networkOne[3].nic.mac 	nbTxFrames 	4189
scalar Forest.networkOne[3].nic.mac 	nbRxFrames 	18372
scalar Forest.networkOne[3].nic.mac 	nbDroppedFrames 	765
scalar Forest.networkOne[3].nic.mac 	nbMissedAcks 	0
scalar Forest.networkOne[3].nic.mac 	nbRecvdAcks 	0
scalar Forest.networkOne[3].nic.mac 	nbTxAcks 	0
scalar Forest.networkOne[3].nic.mac 	nbDuplicates 	0
scalar Forest.networkOne[3].nic.mac 	meanBackoff 	0.0027112790382355
scalar Forest.networkOne[3].nic.mac 	nbBackoffs 	11063
scalar Forest.networkOne[3].nic.mac 	backoffDurations 	29.994879999999
scalar Forest.networkOne[3].nic.phy 	nbFramesWithInterference 	19168
scalar Forest.networkOne[3].nic.phy 	nbFramesWithoutInterference 	180165
scalar Forest.networkOne[3].nic.phy 	nbFramesWithInterferencePartial 	8751
scalar Forest.networkOne[3].nic.phy 	nbFramesWithoutInterferencePartial 	1193
scalar Forest.networkOne[3].nic.phy 	nbFramesWithInterferenceDropped 	5619
scalar Forest.networkOne[3].nic.phy 	nbFramesWithoutInterferenceDropped 	17061
scalar Forest.networkOne[3].netwl 	nbDataPacketsForwarded 	2454
scalar Forest.networkOne[3].netwl 	nbDataPacketsReceived 	0
scalar Forest.networkOne[3].netwl 	nbDataPacketsSent 	2500
scalar Forest.networkOne[3].netwl 	nbDuplicatedFloodsReceived 	27493
scalar Forest.networkOne[3].netwl 	nbFloodsSent 	0
scalar Forest.networkOne[3].netwl 	nbPureUnicastSent 	2500
scalar Forest.networkOne[3].netwl 	nbRouteFloodsSent 	0
scalar Forest.networkOne[3].netwl 	nbRouteFloodsReceived 	3
scalar Forest.networkOne[3].netwl 	nbUnicastFloodForwarded 	2451
scalar Forest.networkOne[3].netwl 	nbPureUnicastForwarded 	0
scalar Forest.networkOne[3].netwl 	nbGetRouteFailures 	0
scalar Forest.networkOne[3].netwl 	nbRoutesRecorded 	1
scalar Forest.networkOne[3].netwl 	meanNbHops 	-nan
scalar Forest.networkOne[3].tranl 	nbAggrPktReceived 	0
scalar Forest.networkOne[3].tranl 	"nbAggrPktSentDown " 	0
scalar Forest.networkOne[3].appl 	"activity duration" 	-1
attr unit  s
scalar Forest.networkOne[3].appl 	firstPacketGeneration 	-1
attr unit  s
scalar Forest.networkOne[3].appl 	lastPacketReception 	-2
attr unit  s
scalar Forest.networkOne[3].appl 	nbPacketsSent 	2500
scalar Forest.networkOne[3].appl 	nbPacketsReceived 	0
statistic Forest.networkOne[3].appl 	latency
field count 0
field mean 0
field stddev -nan
field sum 0
field sqrsum 0
field min 0
field max 0
scalar Forest.networkOne[3].batteryStats 	nominal 	10800000
attr unit  mW-s
scalar Forest.networkOne[3].batteryStats 	total 	141795.76088401
attr unit  mW-s
scalar Forest.networkOne[3].batteryStats 	lifetime 	-1
attr unit  s
scalar Forest.networkOne[3].batteryStats 	"Mean power consumption" 	28.300321131666
attr unit  mW
scalar Forest.networkOne[3].batteryStats 	"num devices" 	1
scalar Forest.networkOne[3].batteryStats 	"physical layer" 	0
scalar Forest.networkOne[3].batteryStats 	"device total (mWs)" 	141795.7608822
scalar Forest.networkOne[3].batteryStats 	account 	0
scalar Forest.networkOne[3].batteryStats 	"energy (mWs)" 	0.15724410889929
scalar Forest.networkOne[3].batteryStats 	"time (s)" 	2495.9382364966
scalar Forest.networkOne[3].batteryStats 	"account 0" 	0.15724410889929
scalar Forest.networkOne[3].batteryStats 	account 	1
scalar Forest.networkOne[3].batteryStats 	"energy (mWs)" 	141459.9719565
scalar Forest.networkOne[3].batteryStats 	"time (s)" 	2508.1555311435
scalar Forest.networkOne[3].batteryStats 	"account 1" 	141459.9719565
scalar Forest.networkOne[3].batteryStats 	account 	2
scalar Forest.networkOne[3].batteryStats 	"energy (mWs)" 	244.90235519997
scalar Forest.networkOne[3].batteryStats 	"time (s)" 	4.691616
scalar Forest.networkOne[3].batteryStats 	"account 2" 	244.90235519997
scalar Forest.networkOne[3].batteryStats 	account 	3
scalar Forest.networkOne[3].batteryStats 	"energy (mWs)" 	90.729326399992
scalar Forest.networkOne[3].batteryStats 	"time (s)" 	1.608676
scalar Forest.networkOne[3].batteryStats 	"account 3" 	90.729326399992
scalar Forest.networkOne[3].batteryStats 	account 	4
scalar Forest.networkOne[3].batteryStats 	"energy (mWs)" 	0
scalar Forest.networkOne[3].batteryStats 	"time (s)" 	0
scalar Forest.networkOne[3].batteryStats 	"account 4" 	0
scalar Forest.networkOne[4].nic.mac 	nbTxFrames 	4206
scalar Forest.networkOne[4].nic.mac 	nbRxFrames 	18043
scalar Forest.networkOne[4].nic.mac 	nbDroppedFrames 	764
scalar Forest.networkOne[4].nic.mac 	nbMissedAcks 	0
scalar Forest.networkOne[4].nic.mac 	nbRecvdAcks 	0
scalar Forest.networkOne[4].nic.mac 	nbTxAcks 	0
scalar Forest.networkOne[4].nic.mac 	nbDuplicates 	0
scalar Forest.networkOne[4].nic.mac 	meanBackoff 	0.0027023240823634
scalar Forest.networkOne[4].nic.mac 	nbBackoffs 	11170
scalar Forest.networkOne[4].nic.mac 	backoffDurations 	30.184959999999
scalar Forest.networkOne[4].nic.phy 	nbFramesWithInterference 	18697
scalar Forest.networkOne[4].nic.phy 	nbFramesWithoutInterference 	182879
scalar Forest.networkOne[4].nic.phy 	nbFramesWithInterferencePartial 	9586
scalar Forest.networkOne[4].nic.phy 	nbFramesWithoutInterferencePartial 	1247
scalar Forest.networkOne[4].nic.phy 	nbFramesWithInterferenceDropped 	5740
scalar Forest.networkOne[4].nic.phy 	nbFramesWithoutInterferenceDropped 	17330
scalar Forest.networkOne[4].netwl 	nbDataPacketsForwarded 	2470
scalar Forest.networkOne[4].netwl 	nbDataPacketsReceived 	0
scalar Forest.networkOne[4].netwl 	nbDataPacketsSent 	2500
scalar Forest.networkOne[4].netwl 	nbDuplicatedFloodsReceived 	27199
scalar Forest.networkOne[4].netwl 	nbFloodsSent 	0
scalar Forest.networkOne[4].netwl 	nbPureUnicastSent 	2500
scalar Forest.networkOne[4].netwl 	nbRouteFloodsSent 	0
scalar Forest.networkOne[4].netwl 	nbRouteFloodsReceived 	3
scalar Forest.networkOne[4].netwl 	nbUnicastFloodForwarded 	2467
scalar Forest.networkOne[4].netwl 	nbPureUnicastForwarded 	0
scalar Forest.networkOne[4].netwl 	nbGetRouteFailures 	0
scalar Forest.networkOne[4].netwl 	nbRoutesRecorded 	1
scalar Forest.networkOne[4].netwl 	meanNbHops 	-nan
scalar Forest.networkOne[4].tranl 	nbAggrPktReceived 	0
scalar Forest.networkOne[4].tranl 	"nbAggrPktSentDown " 	0
scalar Forest.networkOne[4].appl 	"activity duration" 	-1
attr unit  s
scalar Forest.networkOne[4].appl 	firstPacketGeneration 	-1
attr unit  s
scalar Forest.networkOne[4].appl 	lastPacketReception 	-2
attr unit  s
scalar Forest.networkOne[4].appl 	nbPacketsSent 	2500
scalar Forest.networkOne[4].appl 	nbPacketsReceived 	0
statistic Forest.networkOne[4].appl 	latency
field count 0
field mean 0
field stddev -nan
field sum 0
field sqrsum 0
field min 0
field max 0
scalar Forest.networkOne[4].batteryStats 	nominal 	10800000
attr unit  mW-s
scalar Forest.networkOne[4].batteryStats 	total 	142717.89689005
attr unit  mW-s
scalar Forest.networkOne[4].batteryStats 	lifetime 	-1
attr unit  s
scalar Forest.networkOne[4].batteryStats 	"Mean power consumption" 	28.484365738749
attr unit  mW
scalar Forest.networkOne[4].batteryStats 	"num devices" 	1
scalar Forest.networkOne[4].batteryStats 	"physical layer" 	0
scalar Forest.networkOne[4].batteryStats 	"device total (mWs)" 	142717.89688815
scalar Forest.networkOne[4].batteryStats 	account 	0
scalar Forest.networkOne[4].batteryStats 	"energy (mWs)" 	0.15621397348461
scalar Forest.networkOne[4].batteryStats 	"time (s)" 	2479.586880708
scalar Forest.networkOne[4].batteryStats 	"account 0" 	0.15621397348461
scalar Forest.networkOne[4].batteryStats 	account 	1
scalar Forest.networkOne[4].batteryStats 	"energy (mWs)" 	142380.75360697
scalar Forest.networkOne[4].batteryStats 	"time (s)" 	2524.4814469321
scalar Forest.networkOne[4].batteryStats 	"account 1" 	142380.75360697
scalar Forest.networkOne[4].batteryStats 	account 	2
scalar Forest.networkOne[4].batteryStats 	"energy (mWs)" 	245.88956159997
scalar Forest.networkOne[4].batteryStats 	"time (s)" 	4.710528
scalar Forest.networkOne[4].batteryStats 	"account 2" 	245.88956159997
scalar Forest.networkOne[4].batteryStats 	account 	3
scalar Forest.networkOne[4].batteryStats 	"energy (mWs)" 	91.097505599992
scalar Forest.networkOne[4].batteryStats 	"time (s)" 	1.615204
scalar Forest.networkOne[4].batteryStats 	"account 3" 	91.097505599992
scalar Forest.networkOne[4].batteryStats 	account 	4
scalar Forest.networkOne[4].batteryStats 	"energy (mWs)" 	0
scalar Forest.networkOne[4].batteryStats 	"time (s)" 	0
scalar Forest.networkOne[4].batteryStats 	"account 4" 	0
scalar Forest.networkOne[5].nic.mac 	nbTxFrames 	4250
scalar Forest.networkOne[5].nic.mac 	nbRxFrames 	17378
scalar Forest.networkOne[5].nic.mac 	nbDroppedFrames 	721
scalar Forest.networkOne[5].nic.mac 	nbMissedAcks 	0
scalar Forest.networkOne[5].nic.mac 	nbRecvdAcks 	0
scalar Forest.networkOne[5].nic.mac 	nbTxAcks 	0
scalar Forest.networkOne[5].nic.mac 	nbDuplicates 	0
scalar Forest.networkOne[5].nic.mac 	meanBackoff 	0.0026829326359455
scalar Forest.networkOne[5].nic.mac 	nbBackoffs 	11089
scalar Forest.networkOne[5].nic.mac 	backoffDurations 	29.751039999999
scalar Forest.networkOne[5].nic.phy 	nbFramesWithInterference 	17562
scalar Forest.networkOne[5].nic.phy 	nbFramesWithoutInterference 	177174
scalar Forest.networkOne[5].nic.phy 	nbFramesWithInterferencePartial 	10050
scalar Forest.networkOne[5].nic.phy 	nbFramesWithoutInterferencePartial 	1346
scalar Forest.networkOne[5].nic.phy 	nbFramesWithInterferenceDropped 	5807
scalar Forest.networkOne[5].nic.phy 	nbFramesWithoutInterferenceDropped 	18645
scalar Forest.networkOne[5].netwl 	nbDataPacketsForwarded 	2471
scalar Forest.networkOne[5].netwl 	nbDataPacketsReceived 	0
scalar Forest.networkOne[5].netwl 	nbDataPacketsSent 	2500
scalar Forest.networkOne[5].netwl 	nbDuplicatedFloodsReceived 	26072
scalar Forest.networkOne[5].netwl 	nbFloodsSent 	0
scalar Forest.networkOne[5].netwl 	nbPureUnicastSent 	2500
scalar Forest.networkOne[5].netwl 	nbRouteFloodsSent 	0
scalar Forest.networkOne[5].netwl 	nbRouteFloodsReceived 	3
scalar Forest.networkOne[5].netwl 	nbUnicastFloodForwarded 	2468
scalar Forest.networkOne[5].netwl 	nbPureUnicastForwarded 	0
scalar Forest.networkOne[5].netwl 	nbGetRouteFailures 	0
scalar Forest.networkOne[5].netwl 	nbRoutesRecorded 	1
scalar Forest.networkOne[5].netwl 	meanNbHops 	-nan
scalar Forest.networkOne[5].tranl 	nbAggrPktReceived 	0
scalar Forest.networkOne[5].tranl 	"nbAggrPktSentDown " 	0
scalar Forest.networkOne[5].appl 	"activity duration" 	-1
attr unit  s
scalar Forest.networkOne[5].appl 	firstPacketGeneration 	-1
attr unit  s
scalar Forest.networkOne[5].appl 	lastPacketReception 	-2
attr unit  s
scalar Forest.networkOne[5].appl 	nbPacketsSent 	2500
scalar Forest.networkOne[5].appl 	nbPacketsReceived 	0
statistic Forest.networkOne[5].appl 	latency
field count 0
field mean 0
field stddev -nan
field sum 0
field sqrsum 0
field min 0
field max 0
scalar Forest.networkOne[5].batteryStats 	nominal 	10800000
attr unit  mW-s
scalar Forest.networkOne[5].batteryStats 	total 	144248.55035037
attr unit  mW-s
scalar Forest.networkOne[5].batteryStats 	lifetime 	-1
attr unit  s
scalar Forest.networkOne[5].batteryStats 	"Mean power consumption" 	28.789861362867
attr unit  mW
scalar Forest.networkOne[5].batteryStats 	"num devices" 	1
scalar Forest.networkOne[5].batteryStats 	"physical layer" 	0
scalar Forest.networkOne[5].batteryStats 	"device total (mWs)" 	144248.55034851
scalar Forest.networkOne[5].batteryStats 	account 	0
scalar Forest.networkOne[5].batteryStats 	"energy (mWs)" 	0.15450396759532
scalar Forest.networkOne[5].batteryStats 	"time (s)" 	2452.4439300844
scalar Forest.networkOne[5].batteryStats 	"account 0" 	0.15450396759532
scalar Forest.networkOne[5].batteryStats 	account 	1
scalar Forest.networkOne[5].batteryStats 	"energy (mWs)" 	143907.88008614
scalar Forest.networkOne[5].batteryStats 	"time (s)" 	2551.5581575556
scalar Forest.networkOne[5].batteryStats 	"account 1" 	143907.88008614
scalar Forest.networkOne[5].batteryStats 	account 	2
scalar Forest.networkOne[5].batteryStats 	"energy (mWs)" 	248.46531839997
scalar Forest.networkOne[5].batteryStats 	"time (s)" 	4.759872
scalar Forest.networkOne[5].batteryStats 	"account 2" 	248.46531839997
scalar Forest.networkOne[5].batteryStats 	account 	3
scalar Forest.networkOne[5].batteryStats 	"energy (mWs)" 	92.050439999992
scalar Forest.networkOne[5].batteryStats 	"time (s)" 	1.6321
scalar Forest.networkOne[5].batteryStats 	"account 3" 	92.050439999992
scalar Forest.networkOne[5].batteryStats 	account 	4
scalar Forest.networkOne[5].batteryStats 	"energy (mWs)" 	0
scalar Forest.networkOne[5].batteryStats 	"time (s)" 	0
scalar Forest.networkOne[5].batteryStats 	"account 4" 	0
scalar Forest.networkOne[6].nic.mac 	nbTxFrames 	4267
scalar Forest.networkOne[6].nic.mac 	nbRxFrames 	16267
scalar Forest.networkOne[6].nic.mac 	nbDroppedFrames 	701
scalar Forest.networkOne[6].nic.mac 	nbMissedAcks 	0
scalar Forest.networkOne[6].nic.mac 	nbRecvdAcks 	0
scalar Forest.networkOne[6].nic.mac 	nbTxAcks 	0
scalar Forest.networkOne[6].nic.mac 	nbDuplicates 	0
scalar Forest.networkOne[6].nic.mac 	meanBackoff 	0.0026897163636363
scalar Forest.networkOne[6].nic.mac 	nbBackoffs 	11000
scalar Forest.networkOne[6].nic.mac 	backoffDurations 	29.586879999999
scalar Forest.networkOne[6].nic.phy 	nbFramesWithInterference 	16427
scalar Forest.networkOne[6].nic.phy 	nbFramesWithoutInterference 	161626
scalar Forest.networkOne[6].nic.phy 	nbFramesWithInterferencePartial 	10034
scalar Forest.networkOne[6].nic.phy 	nbFramesWithoutInterferencePartial 	1488
scalar Forest.networkOne[6].nic.phy 	nbFramesWithInterferenceDropped 	5659
scalar Forest.networkOne[6].nic.phy 	nbFramesWithoutInterferenceDropped 	20198
scalar Forest.networkOne[6].netwl 	nbDataPacketsForwarded 	2468
scalar Forest.networkOne[6].netwl 	nbDataPacketsReceived 	0
scalar Forest.networkOne[6].netwl 	nbDataPacketsSent 	2500
scalar Forest.networkOne[6].netwl 	nbDuplicatedFloodsReceived 	24624
scalar Forest.networkOne[6].netwl 	nbFloodsSent 	0
scalar Forest.networkOne[6].netwl 	nbPureUnicastSent 	2500
scalar Forest.networkOne[6].netwl 	nbRouteFloodsSent 	0
scalar Forest.networkOne[6].netwl 	nbRouteFloodsReceived 	3
scalar Forest.networkOne[6].netwl 	nbUnicastFloodForwarded 	2465
scalar Forest.networkOne[6].netwl 	nbPureUnicastForwarded 	0
scalar Forest.networkOne[6].netwl 	nbGetRouteFailures 	0
scalar Forest.networkOne[6].netwl 	nbRoutesRecorded 	1
scalar Forest.networkOne[6].netwl 	meanNbHops 	-nan
scalar Forest.networkOne[6].tranl 	nbAggrPktReceived 	0
scalar Forest.networkOne[6].tranl 	"nbAggrPktSentDown " 	0
scalar Forest.networkOne[6].appl 	"activity duration" 	-1
attr unit  s
scalar Forest.networkOne[6].appl 	firstPacketGeneration 	-1
attr unit  s
scalar Forest.networkOne[6].appl 	lastPacketReception 	-2
attr unit  s
scalar Forest.networkOne[6].appl 	nbPacketsSent 	2500
scalar Forest.networkOne[6].appl 	nbPacketsReceived 	0
statistic Forest.networkOne[6].appl 	latency
field count 0
field mean 0
field stddev -nan
field sum 0
field sqrsum 0
field min 0
field max 0
scalar Forest.networkOne[6].batteryStats 	nominal 	10800000
attr unit  mW-s
scalar Forest.networkOne[6].batteryStats 	total 	142559.69501399
attr unit  mW-s
scalar Forest.networkOne[6].batteryStats 	lifetime 	-1
attr unit  s
scalar Forest.networkOne[6].batteryStats 	"Mean power consumption" 	28.452791001479
attr unit  mW
scalar Forest.networkOne[6].batteryStats 	"num devices" 	1
scalar Forest.networkOne[6].batteryStats 	"physical layer" 	0
scalar Forest.networkOne[6].batteryStats 	"device total (mWs)" 	142559.69501217
scalar Forest.networkOne[6].batteryStats 	account 	0
scalar Forest.networkOne[6].batteryStats 	"energy (mWs)" 	0.15639036802055
scalar Forest.networkOne[6].batteryStats 	"time (s)" 	2482.3867939769
scalar Forest.networkOne[6].batteryStats 	"account 0" 	0.15639036802055
scalar Forest.networkOne[6].batteryStats 	account 	1
scalar Forest.networkOne[6].batteryStats 	"energy (mWs)" 	142217.66413701
scalar Forest.networkOne[6].batteryStats 	"time (s)" 	2521.5897896632
scalar Forest.networkOne[6].batteryStats 	"account 1" 	142217.66413701
scalar Forest.networkOne[6].batteryStats 	account 	2
scalar Forest.networkOne[6].batteryStats 	"energy (mWs)" 	249.45586559997
scalar Forest.networkOne[6].batteryStats 	"time (s)" 	4.778848
scalar Forest.networkOne[6].batteryStats 	"account 2" 	249.45586559997
scalar Forest.networkOne[6].batteryStats 	account 	3
scalar Forest.networkOne[6].batteryStats 	"energy (mWs)" 	92.418619199991
scalar Forest.networkOne[6].batteryStats 	"time (s)" 	1.638628
scalar Forest.networkOne[6].batteryStats 	"account 3" 	92.418619199991
scalar Forest.networkOne[6].batteryStats 	account 	4
scalar Forest.networkOne[6].batteryStats 	"energy (mWs)" 	0
scalar Forest.networkOne[6].batteryStats 	"time (s)" 	0
scalar Forest.networkOne[6].batteryStats 	"account 4" 	0
scalar Forest.networkOne[7].nic.mac 	nbTxFrames 	4307
scalar Forest.networkOne[7].nic.mac 	nbRxFrames 	14916
scalar Forest.networkOne[7].nic.mac 	nbDroppedFrames 	634
scalar Forest.networkOne[7].nic.mac 	nbMissedAcks 	0
scalar Forest.networkOne[7].nic.mac 	nbRecvdAcks 	0
scalar Forest.networkOne[7].nic.mac 	nbTxAcks 	0
scalar Forest.networkOne[7].nic.mac 	nbDuplicates 	0
scalar Forest.networkOne[7].nic.mac 	meanBackoff 	0.0027031011899271
scalar Forest.networkOne[7].nic.mac 	nbBackoffs 	10841
scalar Forest.networkOne[7].nic.mac 	backoffDurations 	29.304319999999
scalar Forest.networkOne[7].nic.phy 	nbFramesWithInterference 	15192
scalar Forest.networkOne[7].nic.phy 	nbFramesWithoutInterference 	139410
scalar Forest.networkOne[7].nic.phy 	nbFramesWithInterferencePartial 	9318
scalar Forest.networkOne[7].nic.phy 	nbFramesWithoutInterferencePartial 	1621
scalar Forest.networkOne[7].nic.phy 	nbFramesWithInterferenceDropped 	5566
scalar Forest.networkOne[7].nic.phy 	nbFramesWithoutInterferenceDropped 	21441
scalar Forest.networkOne[7].netwl 	nbDataPacketsForwarded 	2441
scalar Forest.networkOne[7].netwl 	nbDataPacketsReceived 	0
scalar Forest.networkOne[7].netwl 	nbDataPacketsSent 	2500
scalar Forest.networkOne[7].netwl 	nbDuplicatedFloodsReceived 	22859
scalar Forest.networkOne[7].netwl 	nbFloodsSent 	0
scalar Forest.networkOne[7].netwl 	nbPureUnicastSent 	2500
scalar Forest.networkOne[7].netwl 	nbRouteFloodsSent 	0
scalar Forest.networkOne[7].netwl 	nbRouteFloodsReceived 	3
scalar Forest.networkOne[7].netwl 	nbUnicastFloodForwarded 	2438
scalar Forest.networkOne[7].netwl 	nbPureUnicastForwarded 	0
scalar Forest.networkOne[7].netwl 	nbGetRouteFailures 	0
scalar Forest.networkOne[7].netwl 	nbRoutesRecorded 	1
scalar Forest.networkOne[7].netwl 	meanNbHops 	-nan
scalar Forest.networkOne[7].tranl 	nbAggrPktReceived 	0
scalar Forest.networkOne[7].tranl 	"nbAggrPktSentDown " 	0
scalar Forest.networkOne[7].appl 	"activity duration" 	-1
attr unit  s
scalar Forest.networkOne[7].appl 	firstPacketGeneration 	-1
attr unit  s
scalar Forest.networkOne[7].appl 	lastPacketReception 	-2
attr unit  s
scalar Forest.networkOne[7].appl 	nbPacketsSent 	2500
scalar Forest.networkOne[7].appl 	nbPacketsReceived 	0
statistic Forest.networkOne[7].appl 	latency
field count 0
field mean 0
field stddev -nan
field sum 0
field sqrsum 0
field min 0
field max 0
scalar Forest.networkOne[7].batteryStats 	nominal 	10800000
attr unit  mW-s
scalar Forest.networkOne[7].batteryStats 	total 	141100.4215548
attr unit  mW-s
scalar Forest.networkOne[7].batteryStats 	lifetime 	-1
attr unit  s
scalar Forest.networkOne[7].batteryStats 	"Mean power consumption" 	28.161541762034
attr unit  mW
scalar Forest.networkOne[7].batteryStats 	"num devices" 	1
scalar Forest.networkOne[7].batteryStats 	"physical layer" 	0
scalar Forest.networkOne[7].batteryStats 	"device total (mWs)" 	141100.42155292
scalar Forest.networkOne[7].batteryStats 	account 	0
scalar Forest.networkOne[7].batteryStats 	"energy (mWs)" 	0.15802019916474
scalar Forest.networkOne[7].batteryStats 	"time (s)" 	2508.2571295991
scalar Forest.networkOne[7].batteryStats 	"account 0" 	0.15802019916474
scalar Forest.networkOne[7].batteryStats 	account 	1
scalar Forest.networkOne[7].batteryStats 	"energy (mWs)" 	140755.18418392
scalar Forest.networkOne[7].batteryStats 	"time (s)" 	2495.659294041
scalar Forest.networkOne[7].batteryStats 	"account 1" 	140755.18418392
scalar Forest.networkOne[7].batteryStats 	account 	2
scalar Forest.networkOne[7].batteryStats 	"energy (mWs)" 	251.79442559997
scalar Forest.networkOne[7].batteryStats 	"time (s)" 	4.823648
scalar Forest.networkOne[7].batteryStats 	"account 2" 	251.79442559997
scalar Forest.networkOne[7].batteryStats 	account 	3
scalar Forest.networkOne[7].batteryStats 	"energy (mWs)" 	93.284923199991
scalar Forest.networkOne[7].batteryStats 	"time (s)" 	1.653988
scalar Forest.networkOne[7].batteryStats 	"account 3" 	93.284923199991
scalar Forest.networkOne[7].batteryStats 	account 	4
scalar Forest.networkOne[7].batteryStats 	"energy (mWs)" 	0
scalar Forest.networkOne[7].batteryStats 	"time (s)" 	0
scalar Forest.networkOne[7].batteryStats 	"account 4" 	0
scalar Forest.networkOne[8].nic.mac 	nbTxFrames 	4342
scalar Forest.networkOne[8].nic.mac 	nbRxFrames 	13814
scalar Forest.networkOne[8].nic.mac 	nbDroppedFrames 	602
scalar Forest.networkOne[8].nic.mac 	nbMissedAcks 	0
scalar Forest.networkOne[8].nic.mac 	nbRecvdAcks 	0
scalar Forest.networkOne[8].nic.mac 	nbTxAcks 	0
scalar Forest.networkOne[8].nic.mac 	nbDuplicates 	0
scalar Forest.networkOne[8].nic.mac 	meanBackoff 	0.0026637845923709
scalar Forest.networkOne[8].nic.mac 	nbBackoffs 	10696
scalar Forest.networkOne[8].nic.mac 	backoffDurations 	28.49184
scalar Forest.networkOne[8].nic.phy 	nbFramesWithInterference 	13944
scalar Forest.networkOne[8].nic.phy 	nbFramesWithoutInterference 	115701
scalar Forest.networkOne[8].nic.phy 	nbFramesWithInterferencePartial 	7862
scalar Forest.networkOne[8].nic.phy 	nbFramesWithoutInterferencePartial 	1604
scalar Forest.networkOne[8].nic.phy 	nbFramesWithInterferenceDropped 	5664
scalar Forest.networkOne[8].nic.phy 	nbFramesWithoutInterferenceDropped 	21539
scalar Forest.networkOne[8].netwl 	nbDataPacketsForwarded 	2444
scalar Forest.networkOne[8].netwl 	nbDataPacketsReceived 	0
scalar Forest.networkOne[8].netwl 	nbDataPacketsSent 	2500
scalar Forest.networkOne[8].netwl 	nbDuplicatedFloodsReceived 	20932
scalar Forest.networkOne[8].netwl 	nbFloodsSent 	0
scalar Forest.networkOne[8].netwl 	nbPureUnicastSent 	2500
scalar Forest.networkOne[8].netwl 	nbRouteFloodsSent 	0
scalar Forest.networkOne[8].netwl 	nbRouteFloodsReceived 	3
scalar Forest.networkOne[8].netwl 	nbUnicastFloodForwarded 	2441
scalar Forest.networkOne[8].netwl 	nbPureUnicastForwarded 	0
scalar Forest.networkOne[8].netwl 	nbGetRouteFailures 	0
scalar Forest.networkOne[8].netwl 	nbRoutesRecorded 	1
scalar Forest.networkOne[8].netwl 	meanNbHops 	-nan
scalar Forest.networkOne[8].tranl 	nbAggrPktReceived 	0
scalar Forest.networkOne[8].tranl 	"nbAggrPktSentDown " 	0
scalar Forest.networkOne[8].appl 	"activity duration" 	-1
attr unit  s
scalar Forest.networkOne[8].appl 	firstPacketGeneration 	-1
attr unit  s
scalar Forest.networkOne[8].appl 	lastPacketReception 	-2
attr unit  s
scalar Forest.networkOne[8].appl 	nbPacketsSent 	2500
scalar Forest.networkOne[8].appl 	nbPacketsReceived 	0
statistic Forest.networkOne[8].appl 	latency
field count 0
field mean 0
field stddev -nan
field sum 0
field sqrsum 0
field min 0
field max 0
scalar Forest.networkOne[8].batteryStats 	nominal 	10800000
attr unit  mW-s
scalar Forest.networkOne[8].batteryStats 	total 	141300.03054866
attr unit  mW-s
scalar Forest.networkOne[8].batteryStats 	lifetime 	-1
attr unit  s
scalar Forest.networkOne[8].batteryStats 	"Mean power consumption" 	28.201380743058
attr unit  mW
scalar Forest.networkOne[8].batteryStats 	"num devices" 	1
scalar Forest.networkOne[8].batteryStats 	"physical layer" 	0
scalar Forest.networkOne[8].batteryStats 	"device total (mWs)" 	141300.03054681
scalar Forest.networkOne[8].batteryStats 	account 	0
scalar Forest.networkOne[8].batteryStats 	"energy (mWs)" 	0.15779704751591
scalar Forest.networkOne[8].batteryStats 	"time (s)" 	2504.7150399351
scalar Forest.networkOne[8].batteryStats 	"account 0" 	0.15779704751591
scalar Forest.networkOne[8].batteryStats 	account 	1
scalar Forest.networkOne[8].batteryStats 	"energy (mWs)" 	140951.98914497
scalar Forest.networkOne[8].batteryStats 	"time (s)" 	2499.148743705
scalar Forest.networkOne[8].batteryStats 	"account 1" 	140951.98914497
scalar Forest.networkOne[8].batteryStats 	account 	2
scalar Forest.networkOne[8].batteryStats 	"energy (mWs)" 	253.84066559997
scalar Forest.networkOne[8].batteryStats 	"time (s)" 	4.862848
scalar Forest.networkOne[8].batteryStats 	"account 2" 	253.84066559997
scalar Forest.networkOne[8].batteryStats 	account 	3
scalar Forest.networkOne[8].batteryStats 	"energy (mWs)" 	94.042939199991
scalar Forest.networkOne[8].batteryStats 	"time (s)" 	1.667428
scalar Forest.networkOne[8].batteryStats 	"account 3" 	94.042939199991
scalar Forest.networkOne[8].batteryStats 	account 	4
scalar Forest.networkOne[8].batteryStats 	"energy (mWs)" 	0
scalar Forest.networkOne[8].batteryStats 	"time (s)" 	0
scalar Forest.networkOne[8].batteryStats 	"account 4" 	0
scalar Forest.networkOne[9].nic.mac 	nbTxFrames 	6195
scalar Forest.networkOne[9].nic.mac 	nbRxFrames 	18236
scalar Forest.networkOne[9].nic.mac 	nbDroppedFrames 	735
scalar Forest.networkOne[9].nic.mac 	nbMissedAcks 	0
scalar Forest.networkOne[9].nic.mac 	nbRecvdAcks 	0
scalar Forest.networkOne[9].nic.mac 	nbTxAcks 	0
scalar Forest.networkOne[9].nic.mac 	nbDuplicates 	0
scalar Forest.networkOne[9].nic.mac 	meanBackoff 	0.0024985424133811
scalar Forest.networkOne[9].nic.mac 	nbBackoffs 	13392
scalar Forest.networkOne[9].nic.mac 	backoffDurations 	33.460479999999
scalar Forest.networkOne[9].nic.phy 	nbFramesWithInterference 	17563
scalar Forest.networkOne[9].nic.phy 	nbFramesWithoutInterference 	153426
scalar Forest.networkOne[9].nic.phy 	nbFramesWithInterferencePartial 	7123
scalar Forest.networkOne[9].nic.phy 	nbFramesWithoutInterferencePartial 	1387
scalar Forest.networkOne[9].nic.phy 	nbFramesWithInterferenceDropped 	5774
scalar Forest.networkOne[9].nic.phy 	nbFramesWithoutInterferenceDropped 	18709
scalar Forest.networkOne[9].netwl 	nbDataPacketsForwarded 	4430
scalar Forest.networkOne[9].netwl 	nbDataPacketsReceived 	0
scalar Forest.networkOne[9].netwl 	nbDataPacketsSent 	2500
scalar Forest.networkOne[9].netwl 	nbDuplicatedFloodsReceived 	24495
scalar Forest.networkOne[9].netwl 	nbFloodsSent 	0
scalar Forest.networkOne[9].netwl 	nbPureUnicastSent 	2500
scalar Forest.networkOne[9].netwl 	nbRouteFloodsSent 	0
scalar Forest.networkOne[9].netwl 	nbRouteFloodsReceived 	3
scalar Forest.networkOne[9].netwl 	nbUnicastFloodForwarded 	2458
scalar Forest.networkOne[9].netwl 	nbPureUnicastForwarded 	1969
scalar Forest.networkOne[9].netwl 	nbGetRouteFailures 	0
scalar Forest.networkOne[9].netwl 	nbRoutesRecorded 	1
scalar Forest.networkOne[9].netwl 	meanNbHops 	-nan
scalar Forest.networkOne[9].tranl 	nbAggrPktReceived 	0
scalar Forest.networkOne[9].tranl 	"nbAggrPktSentDown " 	0
scalar Forest.networkOne[9].appl 	"activity duration" 	-1
attr unit  s
scalar Forest.networkOne[9].appl 	firstPacketGeneration 	-1
attr unit  s
scalar Forest.networkOne[9].appl 	lastPacketReception 	-2
attr unit  s
scalar Forest.networkOne[9].appl 	nbPacketsSent 	2500
scalar Forest.networkOne[9].appl 	nbPacketsReceived 	0
statistic Forest.networkOne[9].appl 	latency
field count 0
field mean 0
field stddev -nan
field sum 0
field sqrsum 0
field min 0
field max 0
scalar Forest.networkOne[9].batteryStats 	nominal 	10800000
attr unit  mW-s
scalar Forest.networkOne[9].batteryStats 	total 	142292.27986438
attr unit  mW-s
scalar Forest.networkOne[9].batteryStats 	lifetime 	-1
attr unit  s
scalar Forest.networkOne[9].batteryStats 	"Mean power consumption" 	28.399418922072
attr unit  mW
scalar Forest.networkOne[9].batteryStats 	"num devices" 	1
scalar Forest.networkOne[9].batteryStats 	"physical layer" 	0
scalar Forest.networkOne[9].batteryStats 	"device total (mWs)" 	142292.27986178
scalar Forest.networkOne[9].batteryStats 	account 	0
scalar Forest.networkOne[9].batteryStats 	"energy (mWs)" 	0.1566789461411
scalar Forest.networkOne[9].batteryStats 	"time (s)" 	2486.9673990651
scalar Forest.networkOne[9].batteryStats 	"account 0" 	0.1566789461411
scalar Forest.networkOne[9].batteryStats 	account 	1
scalar Forest.networkOne[9].batteryStats 	"energy (mWs)" 	141795.77425324
scalar Forest.networkOne[9].batteryStats 	"time (s)" 	2514.109472575
scalar Forest.networkOne[9].batteryStats 	"account 1" 	141795.77425324
scalar Forest.networkOne[9].batteryStats 	account 	2
scalar Forest.networkOne[9].batteryStats 	"energy (mWs)" 	362.1744576
scalar Forest.networkOne[9].batteryStats 	"time (s)" 	6.938208
scalar Forest.networkOne[9].batteryStats 	"account 2" 	362.1744576
scalar Forest.networkOne[9].batteryStats 	account 	3
scalar Forest.networkOne[9].batteryStats 	"energy (mWs)" 	134.17447199999
scalar Forest.networkOne[9].batteryStats 	"time (s)" 	2.37898
scalar Forest.networkOne[9].batteryStats 	"account 3" 	134.17447199999
scalar Forest.networkOne[9].batteryStats 	account 	4
scalar Forest.networkOne[9].batteryStats 	"energy (mWs)" 	0
scalar Forest.networkOne[9].batteryStats 	"time (s)" 	0
scalar Forest.networkOne[9].batteryStats 	"account 4" 	0
scalar Forest.networkOne[10].nic.mac 	nbTxFrames 	6710
scalar Forest.networkOne[10].nic.mac 	nbRxFrames 	18546
scalar Forest.networkOne[10].nic.mac 	nbDroppedFrames 	699
scalar Forest.networkOne[10].nic.mac 	nbMissedAcks 	0
scalar Forest.networkOne[10].nic.mac 	nbRecvdAcks 	0
scalar Forest.networkOne[10].nic.mac 	nbTxAcks 	0
scalar Forest.networkOne[10].nic.mac 	nbDuplicates 	0
scalar Forest.networkOne[10].nic.mac 	meanBackoff 	0.0024152187546662
scalar Forest.networkOne[10].nic.mac 	nbBackoffs 	13394
scalar Forest.networkOne[10].nic.mac 	backoffDurations 	32.349439999999
scalar Forest.networkOne[10].nic.phy 	nbFramesWithInterference 	19380
scalar Forest.networkOne[10].nic.phy 	nbFramesWithoutInterference 	186698
scalar Forest.networkOne[10].nic.phy 	nbFramesWithInterferencePartial 	8151
scalar Forest.networkOne[10].nic.phy 	nbFramesWithoutInterferencePartial 	1363
scalar Forest.networkOne[10].nic.phy 	nbFramesWithInterferenceDropped 	5547
scalar Forest.networkOne[10].nic.phy 	nbFramesWithoutInterferenceDropped 	18241
scalar Forest.networkOne[10].netwl 	nbDataPacketsForwarded 	2473
scalar Forest.networkOne[10].netwl 	nbDataPacketsReceived 	0
scalar Forest.networkOne[10].netwl 	nbDataPacketsSent 	4936
scalar Forest.networkOne[10].netwl 	nbDuplicatedFloodsReceived 	27355
scalar Forest.networkOne[10].netwl 	nbFloodsSent 	0
scalar Forest.networkOne[10].netwl 	nbPureUnicastSent 	4936
scalar Forest.networkOne[10].netwl 	nbRouteFloodsSent 	0
scalar Forest.networkOne[10].netwl 	nbRouteFloodsReceived 	5
scalar Forest.networkOne[10].netwl 	nbUnicastFloodForwarded 	2468
scalar Forest.networkOne[10].netwl 	nbPureUnicastForwarded 	0
scalar Forest.networkOne[10].netwl 	nbGetRouteFailures 	0
scalar Forest.networkOne[10].netwl 	nbRoutesRecorded 	1
scalar Forest.networkOne[10].netwl 	meanNbHops 	-nan
scalar Forest.networkOne[10].tranl 	nbAggrPktReceived 	0
scalar Forest.networkOne[10].tranl 	"nbAggrPktSentDown " 	0
scalar Forest.networkOne[10].appl 	"activity duration" 	-1
attr unit  s
scalar Forest.networkOne[10].appl 	firstPacketGeneration 	-1
attr unit  s
scalar Forest.networkOne[10].appl 	lastPacketReception 	-2
attr unit  s
scalar Forest.networkOne[10].appl 	nbPacketsSent 	4936
scalar Forest.networkOne[10].appl 	nbPacketsReceived 	0
statistic Forest.networkOne[10].appl 	latency
field count 0
field mean 0
field stddev -nan
field sum 0
field sqrsum 0
field min 0
field max 0
scalar Forest.networkOne[10].batteryStats 	nominal 	10800000
attr unit  mW-s
scalar Forest.networkOne[10].batteryStats 	total 	282554.66247049
attr unit  mW-s
scalar Forest.networkOne[10].batteryStats 	lifetime 	-1
attr unit  s
scalar Forest.networkOne[10].batteryStats 	"Mean power consumption" 	56.393700596633
attr unit  mW
scalar Forest.networkOne[10].batteryStats 	"num devices" 	1
scalar Forest.networkOne[10].batteryStats 	"physical layer" 	0
scalar Forest.networkOne[10].batteryStats 	"device total (mWs)" 	282554.66246768
scalar Forest.networkOne[10].batteryStats 	account 	0
scalar Forest.networkOne[10].batteryStats 	"energy (mWs)" 	0
scalar Forest.networkOne[10].batteryStats 	"time (s)" 	0
scalar Forest.networkOne[10].batteryStats 	"account 0" 	0
scalar Forest.networkOne[10].batteryStats 	account 	1
scalar Forest.networkOne[10].batteryStats 	"energy (mWs)" 	282017.06323568
scalar Forest.networkOne[10].batteryStats 	"time (s)" 	5000.3025396401
scalar Forest.networkOne[10].batteryStats 	"account 1" 	282017.06323568
scalar Forest.networkOne[10].batteryStats 	account 	2
scalar Forest.networkOne[10].batteryStats 	"energy (mWs)" 	392.27673600001
scalar Forest.networkOne[10].batteryStats 	"time (s)" 	7.51488
scalar Forest.networkOne[10].batteryStats 	"account 2" 	392.27673600001
scalar Forest.networkOne[10].batteryStats 	account 	3
scalar Forest.networkOne[10].batteryStats 	"energy (mWs)" 	145.32249600001
scalar Forest.networkOne[10].batteryStats 	"time (s)" 	2.57664
scalar Forest.networkOne[10].batteryStats 	"account 3" 	145.32249600001
scalar Forest.networkOne[10].batteryStats 	account 	4
scalar Forest.networkOne[10].batteryStats 	"energy (mWs)" 	0
scalar Forest.networkOne[10].batteryStats 	"time (s)" 	0
scalar Forest.networkOne[10].batteryStats 	"account 4" 	0
scalar Forest.networkOne[11].nic.mac 	nbTxFrames 	11825
scalar Forest.networkOne[11].nic.mac 	nbRxFrames 	26688
scalar Forest.networkOne[11].nic.mac 	nbDroppedFrames 	746
scalar Forest.networkOne[11].nic.mac 	nbMissedAcks 	0
scalar Forest.networkOne[11].nic.mac 	nbRecvdAcks 	0
scalar Forest.networkOne[11].nic.mac 	nbTxAcks 	0
scalar Forest.networkOne[11].nic.mac 	nbDuplicates 	0
scalar Forest.networkOne[11].nic.mac 	meanBackoff 	0.0021011336032389
scalar Forest.networkOne[11].nic.mac 	nbBackoffs 	19760
scalar Forest.networkOne[11].nic.mac 	backoffDurations 	41.5184
scalar Forest.networkOne[11].nic.phy 	nbFramesWithInterference 	19737
scalar Forest.networkOne[11].nic.phy 	nbFramesWithoutInterference 	183950
scalar Forest.networkOne[11].nic.phy 	nbFramesWithInterferencePartial 	8890
scalar Forest.networkOne[11].nic.phy 	nbFramesWithoutInterferencePartial 	1226
scalar Forest.networkOne[11].nic.phy 	nbFramesWithInterferenceDropped 	5373
scalar Forest.networkOne[11].nic.phy 	nbFramesWithoutInterferenceDropped 	15965
scalar Forest.networkOne[11].netwl 	nbDataPacketsForwarded 	10071
scalar Forest.networkOne[11].netwl 	nbDataPacketsReceived 	0
scalar Forest.networkOne[11].netwl 	nbDataPacketsSent 	2500
scalar Forest.networkOne[11].netwl 	nbDuplicatedFloodsReceived 	28717
scalar Forest.networkOne[11].netwl 	nbFloodsSent 	0
scalar Forest.networkOne[11].netwl 	nbPureUnicastSent 	2500
scalar Forest.networkOne[11].netwl 	nbRouteFloodsSent 	0
scalar Forest.networkOne[11].netwl 	nbRouteFloodsReceived 	3
scalar Forest.networkOne[11].netwl 	nbUnicastFloodForwarded 	2417
scalar Forest.networkOne[11].netwl 	nbPureUnicastForwarded 	7651
scalar Forest.networkOne[11].netwl 	nbGetRouteFailures 	0
scalar Forest.networkOne[11].netwl 	nbRoutesRecorded 	1
scalar Forest.networkOne[11].netwl 	meanNbHops 	-nan
scalar Forest.networkOne[11].tranl 	nbAggrPktReceived 	0
scalar Forest.networkOne[11].tranl 	"nbAggrPktSentDown " 	0
scalar Forest.networkOne[11].appl 	"activity duration" 	-1
attr unit  s
scalar Forest.networkOne[11].appl 	firstPacketGeneration 	-1
attr unit  s
scalar Forest.networkOne[11].appl 	lastPacketReception 	-2
attr unit  s
scalar Forest.networkOne[11].appl 	nbPacketsSent 	2500
scalar Forest.networkOne[11].appl 	nbPacketsReceived 	0
statistic Forest.networkOne[11].appl 	latency
field count 0
field mean 0
field stddev -nan
field sum 0
field sqrsum 0
field min 0
field max 0
scalar Forest.networkOne[11].batteryStats 	nominal 	10800000
attr unit  mW-s
scalar Forest.networkOne[11].batteryStats 	total 	139846.03159583
attr unit  mW-s
scalar Forest.networkOne[11].batteryStats 	lifetime 	-1
attr unit  s
scalar Forest.networkOne[11].batteryStats 	"Mean power consumption" 	27.911184216492
attr unit  mW
scalar Forest.networkOne[11].batteryStats 	"num devices" 	1
scalar Forest.networkOne[11].batteryStats 	"physical layer" 	0
scalar Forest.networkOne[11].batteryStats 	"device total (mWs)" 	139846.03159076
scalar Forest.networkOne[11].batteryStats 	account 	0
scalar Forest.networkOne[11].batteryStats 	"energy (mWs)" 	0.15938187757134
scalar Forest.networkOne[11].batteryStats 	"time (s)" 	2529.871072561
scalar Forest.networkOne[11].batteryStats 	"account 0" 	0.15938187757134
scalar Forest.networkOne[11].batteryStats 	account 	1
scalar Forest.networkOne[11].batteryStats 	"energy (mWs)" 	138898.43533048
scalar Forest.networkOne[11].batteryStats 	"time (s)" 	2462.7382150791
scalar Forest.networkOne[11].batteryStats 	"account 1" 	138898.43533048
scalar Forest.networkOne[11].batteryStats 	account 	2
scalar Forest.networkOne[11].batteryStats 	"energy (mWs)" 	691.33011839991
scalar Forest.networkOne[11].batteryStats 	"time (s)" 	13.243872
scalar Forest.networkOne[11].batteryStats 	"account 2" 	691.33011839991
scalar Forest.networkOne[11].batteryStats 	account 	3
scalar Forest.networkOne[11].batteryStats 	"energy (mWs)" 	256.10676000014
scalar Forest.networkOne[11].batteryStats 	"time (s)" 	4.5409
scalar Forest.networkOne[11].batteryStats 	"account 3" 	256.10676000014
scalar Forest.networkOne[11].batteryStats 	account 	4
scalar Forest.networkOne[11].batteryStats 	"energy (mWs)" 	0
scalar Forest.networkOne[11].batteryStats 	"time (s)" 	0
scalar Forest.networkOne[11].batteryStats 	"account 4" 	0
scalar Forest.networkOne[12].nic.mac 	nbTxFrames 	4214
scalar Forest.networkOne[12].nic.mac 	nbRxFrames 	19908
scalar Forest.networkOne[12].nic.mac 	nbDroppedFrames 	667
scalar Forest.networkOne[12].nic.mac 	nbMissedAcks 	0
scalar Forest.networkOne[12].nic.mac 	nbRecvdAcks 	0
scalar Forest.networkOne[12].nic.mac 	nbTxAcks 	0
scalar Forest.networkOne[12].nic.mac 	nbDuplicates 	0
scalar Forest.networkOne[12].nic.mac 	meanBackoff 	0.0026574229638759
scalar Forest.networkOne[12].nic.mac 	nbBackoffs 	10547
scalar Forest.networkOne[12].nic.mac 	backoffDurations 	28.02784
scalar Forest.networkOne[12].nic.phy 	nbFramesWithInterference 	19140
scalar Forest.networkOne[12].nic.phy 	nbFramesWithoutInterference 	198388
scalar Forest.networkOne[12].nic.phy 	nbFramesWithInterferencePartial 	10349
scalar Forest.networkOne[12].nic.phy 	nbFramesWithoutInterferencePartial 	1076
scalar Forest.networkOne[12].nic.phy 	nbFramesWithInterferenceDropped 	5497
scalar Forest.networkOne[12].nic.phy 	nbFramesWithoutInterferenceDropped 	15310
scalar Forest.networkOne[12].netwl 	nbDataPacketsForwarded 	2381
scalar Forest.networkOne[12].netwl 	nbDataPacketsReceived 	0
scalar Forest.networkOne[12].netwl 	nbDataPacketsSent 	2500
scalar Forest.networkOne[12].netwl 	nbDuplicatedFloodsReceived 	28404
scalar Forest.networkOne[12].netwl 	nbFloodsSent 	0
scalar Forest.networkOne[12].netwl 	nbPureUnicastSent 	2500
scalar Forest.networkOne[12].netwl 	nbRouteFloodsSent 	0
scalar Forest.networkOne[12].netwl 	nbRouteFloodsReceived 	3
scalar Forest.networkOne[12].netwl 	nbUnicastFloodForwarded 	2378
scalar Forest.networkOne[12].netwl 	nbPureUnicastForwarded 	0
scalar Forest.networkOne[12].netwl 	nbGetRouteFailures 	0
scalar Forest.networkOne[12].netwl 	nbRoutesRecorded 	1
scalar Forest.networkOne[12].netwl 	meanNbHops 	-nan
scalar Forest.networkOne[12].tranl 	nbAggrPktReceived 	0
scalar Forest.networkOne[12].tranl 	"nbAggrPktSentDown " 	0
scalar Forest.networkOne[12].appl 	"activity duration" 	-1
attr unit  s
scalar Forest.networkOne[12].appl 	firstPacketGeneration 	-1
attr unit  s
scalar Forest.networkOne[12].appl 	lastPacketReception 	-2
attr unit  s
scalar Forest.networkOne[12].appl 	nbPacketsSent 	2500
scalar Forest.networkOne[12].appl 	nbPacketsReceived 	0
statistic Forest.networkOne[12].appl 	latency
field count 0
field mean 0
field stddev -nan
field sum 0
field sqrsum 0
field min 0
field max 0
scalar Forest.networkOne[12].batteryStats 	nominal 	10800000
attr unit  mW-s
scalar Forest.networkOne[12].batteryStats 	total 	137845.85766116
attr unit  mW-s
scalar Forest.networkOne[12].batteryStats 	lifetime 	-1
attr unit  s
scalar Forest.networkOne[12].batteryStats 	"Mean power consumption" 	27.511979301497
attr unit  mW
scalar Forest.networkOne[12].batteryStats 	"num devices" 	1
scalar Forest.networkOne[12].batteryStats 	"physical layer" 	0
scalar Forest.networkOne[12].batteryStats 	"device total (mWs)" 	137845.85765941
scalar Forest.networkOne[12].batteryStats 	account 	0
scalar Forest.networkOne[12].batteryStats 	"energy (mWs)" 	0.16165610870649
scalar Forest.networkOne[12].batteryStats 	"time (s)" 	2565.9699794681
scalar Forest.networkOne[12].batteryStats 	"account 0" 	0.16165610870649
scalar Forest.networkOne[12].batteryStats 	account 	1
scalar Forest.networkOne[12].batteryStats 	"energy (mWs)" 	137508.0646225
scalar Forest.networkOne[12].batteryStats 	"time (s)" 	2438.0862521719
scalar Forest.networkOne[12].batteryStats 	"account 1" 	137508.0646225
scalar Forest.networkOne[12].batteryStats 	account 	2
scalar Forest.networkOne[12].batteryStats 	"energy (mWs)" 	246.36061439997
scalar Forest.networkOne[12].batteryStats 	"time (s)" 	4.719552
scalar Forest.networkOne[12].batteryStats 	"account 2" 	246.36061439997
scalar Forest.networkOne[12].batteryStats 	account 	3
scalar Forest.networkOne[12].batteryStats 	"energy (mWs)" 	91.270766399992
scalar Forest.networkOne[12].batteryStats 	"time (s)" 	1.618276
scalar Forest.networkOne[12].batteryStats 	"account 3" 	91.270766399992
scalar Forest.networkOne[12].batteryStats 	account 	4
scalar Forest.networkOne[12].batteryStats 	"energy (mWs)" 	0
scalar Forest.networkOne[12].batteryStats 	"time (s)" 	0
scalar Forest.networkOne[12].batteryStats 	"account 4" 	0
scalar Forest.networkOne[13].nic.mac 	nbTxFrames 	6723
scalar Forest.networkOne[13].nic.mac 	nbRxFrames 	19925
scalar Forest.networkOne[13].nic.mac 	nbDroppedFrames 	709
scalar Forest.networkOne[13].nic.mac 	nbMissedAcks 	0
scalar Forest.networkOne[13].nic.mac 	nbRecvdAcks 	0
scalar Forest.networkOne[13].nic.mac 	nbTxAcks 	0
scalar Forest.networkOne[13].nic.mac 	nbDuplicates 	0
scalar Forest.networkOne[13].nic.mac 	meanBackoff 	0.0024060256028579
scalar Forest.networkOne[13].nic.mac 	nbBackoffs 	13436
scalar Forest.networkOne[13].nic.mac 	backoffDurations 	32.327359999999
scalar Forest.networkOne[13].nic.phy 	nbFramesWithInterference 	18902
scalar Forest.networkOne[13].nic.phy 	nbFramesWithoutInterference 	218438
scalar Forest.networkOne[13].nic.phy 	nbFramesWithInterferencePartial 	11680
scalar Forest.networkOne[13].nic.phy 	nbFramesWithoutInterferencePartial 	1252
scalar Forest.networkOne[13].nic.phy 	nbFramesWithInterferenceDropped 	5608
[...]
scalar Forest.networkTwo[76].netwl 	nbDuplicatedFloodsReceived 	24980
scalar Forest.networkTwo[76].netwl 	nbFloodsSent 	0
scalar Forest.networkTwo[76].netwl 	nbPureUnicastSent 	2500
scalar Forest.networkTwo[76].netwl 	nbRouteFloodsSent 	0
scalar Forest.networkTwo[76].netwl 	nbRouteFloodsReceived 	3
scalar Forest.networkTwo[76].netwl 	nbUnicastFloodForwarded 	2480
scalar Forest.networkTwo[76].netwl 	nbPureUnicastForwarded 	0
scalar Forest.networkTwo[76].netwl 	nbGetRouteFailures 	0
scalar Forest.networkTwo[76].netwl 	nbRoutesRecorded 	1
scalar Forest.networkTwo[76].netwl 	meanNbHops 	-nan
scalar Forest.networkTwo[76].tranl 	nbAggrPktReceived 	0
scalar Forest.networkTwo[76].tranl 	"nbAggrPktSentDown " 	0
scalar Forest.networkTwo[76].appl 	"activity duration" 	-1
attr unit  s
scalar Forest.networkTwo[76].appl 	firstPacketGeneration 	-1
attr unit  s
scalar Forest.networkTwo[76].appl 	lastPacketReception 	-2
attr unit  s
scalar Forest.networkTwo[76].appl 	nbPacketsSent 	2500
scalar Forest.networkTwo[76].appl 	nbPacketsReceived 	0
statistic Forest.networkTwo[76].appl 	latency
field count 0
field mean 0
field stddev -nan
field sum 0
field sqrsum 0
field min 0
field max 0
scalar Forest.networkTwo[76].batteryStats 	nominal 	10800000
attr unit  mW-s
scalar Forest.networkTwo[76].batteryStats 	total 	147195.98859297
attr unit  mW-s
scalar Forest.networkTwo[76].batteryStats 	lifetime 	-1
attr unit  s
scalar Forest.networkTwo[76].batteryStats 	"Mean power consumption" 	29.378126119593
attr unit  mW
scalar Forest.networkTwo[76].batteryStats 	"num devices" 	1
scalar Forest.networkTwo[76].batteryStats 	"physical layer" 	0
scalar Forest.networkTwo[76].batteryStats 	"device total (mWs)" 	147195.98859108
scalar Forest.networkTwo[76].batteryStats 	account 	0
scalar Forest.networkTwo[76].batteryStats 	"energy (mWs)" 	0.15121102914242
scalar Forest.networkTwo[76].batteryStats 	"time (s)" 	2400.1750657527
scalar Forest.networkTwo[76].batteryStats 	"account 0" 	0.15121102914242
scalar Forest.networkTwo[76].batteryStats 	account 	1
scalar Forest.networkTwo[76].batteryStats 	"energy (mWs)" 	146846.42478325
scalar Forest.networkTwo[76].batteryStats 	"time (s)" 	2603.6600138874
scalar Forest.networkTwo[76].batteryStats 	"account 1" 	146846.42478325
scalar Forest.networkTwo[76].batteryStats 	account 	2
scalar Forest.networkTwo[76].batteryStats 	"energy (mWs)" 	254.95816319997
scalar Forest.networkTwo[76].batteryStats 	"time (s)" 	4.884256
scalar Forest.networkTwo[76].batteryStats 	"account 2" 	254.95816319997
scalar Forest.networkTwo[76].batteryStats 	account 	3
scalar Forest.networkTwo[76].batteryStats 	"energy (mWs)" 	94.454433599991
scalar Forest.networkTwo[76].batteryStats 	"time (s)" 	1.674724
scalar Forest.networkTwo[76].batteryStats 	"account 3" 	94.454433599991
scalar Forest.networkTwo[76].batteryStats 	account 	4
scalar Forest.networkTwo[76].batteryStats 	"energy (mWs)" 	0
scalar Forest.networkTwo[76].batteryStats 	"time (s)" 	0
scalar Forest.networkTwo[76].batteryStats 	"account 4" 	0
scalar Forest.networkTwo[77].nic.mac 	nbTxFrames 	4378
scalar Forest.networkTwo[77].nic.mac 	nbRxFrames 	17084
scalar Forest.networkTwo[77].nic.mac 	nbDroppedFrames 	605
scalar Forest.networkTwo[77].nic.mac 	nbMissedAcks 	0
scalar Forest.networkTwo[77].nic.mac 	nbRecvdAcks 	0
scalar Forest.networkTwo[77].nic.mac 	nbTxAcks 	0
scalar Forest.networkTwo[77].nic.mac 	nbDuplicates 	0
scalar Forest.networkTwo[77].nic.mac 	meanBackoff 	0.00265227852716
scalar Forest.networkTwo[77].nic.mac 	nbBackoffs 	10972
scalar Forest.networkTwo[77].nic.mac 	backoffDurations 	29.100799999999
scalar Forest.networkTwo[77].nic.phy 	nbFramesWithInterference 	12607
scalar Forest.networkTwo[77].nic.phy 	nbFramesWithoutInterference 	154470
scalar Forest.networkTwo[77].nic.phy 	nbFramesWithInterferencePartial 	13484
scalar Forest.networkTwo[77].nic.phy 	nbFramesWithoutInterferencePartial 	1596
scalar Forest.networkTwo[77].nic.phy 	nbFramesWithInterferenceDropped 	5768
scalar Forest.networkTwo[77].nic.phy 	nbFramesWithoutInterferenceDropped 	20890
scalar Forest.networkTwo[77].netwl 	nbDataPacketsForwarded 	2483
scalar Forest.networkTwo[77].netwl 	nbDataPacketsReceived 	0
scalar Forest.networkTwo[77].netwl 	nbDataPacketsSent 	2500
scalar Forest.networkTwo[77].netwl 	nbDuplicatedFloodsReceived 	25169
scalar Forest.networkTwo[77].netwl 	nbFloodsSent 	0
scalar Forest.networkTwo[77].netwl 	nbPureUnicastSent 	2500
scalar Forest.networkTwo[77].netwl 	nbRouteFloodsSent 	0
scalar Forest.networkTwo[77].netwl 	nbRouteFloodsReceived 	3
scalar Forest.networkTwo[77].netwl 	nbUnicastFloodForwarded 	2480
scalar Forest.networkTwo[77].netwl 	nbPureUnicastForwarded 	0
scalar Forest.networkTwo[77].netwl 	nbGetRouteFailures 	0
scalar Forest.networkTwo[77].netwl 	nbRoutesRecorded 	1
scalar Forest.networkTwo[77].netwl 	meanNbHops 	-nan
scalar Forest.networkTwo[77].tranl 	nbAggrPktReceived 	0
scalar Forest.networkTwo[77].tranl 	"nbAggrPktSentDown " 	0
scalar Forest.networkTwo[77].appl 	"activity duration" 	-1
attr unit  s
scalar Forest.networkTwo[77].appl 	firstPacketGeneration 	-1
attr unit  s
scalar Forest.networkTwo[77].appl 	lastPacketReception 	-2
attr unit  s
scalar Forest.networkTwo[77].appl 	nbPacketsSent 	2500
scalar Forest.networkTwo[77].appl 	nbPacketsReceived 	0
statistic Forest.networkTwo[77].appl 	latency
field count 0
field mean 0
field stddev -nan
field sum 0
field sqrsum 0
field min 0
field max 0
scalar Forest.networkTwo[77].batteryStats 	nominal 	10800000
attr unit  mW-s
scalar Forest.networkTwo[77].batteryStats 	total 	145899.29392955
attr unit  mW-s
scalar Forest.networkTwo[77].batteryStats 	lifetime 	-1
attr unit  s
scalar Forest.networkTwo[77].batteryStats 	"Mean power consumption" 	29.119325185378
attr unit  mW
scalar Forest.networkTwo[77].batteryStats 	"num devices" 	1
scalar Forest.networkTwo[77].batteryStats 	"physical layer" 	0
scalar Forest.networkTwo[77].batteryStats 	"device total (mWs)" 	145899.29392767
scalar Forest.networkTwo[77].batteryStats 	account 	0
scalar Forest.networkTwo[77].batteryStats 	"energy (mWs)" 	0.15265937756309
scalar Forest.networkTwo[77].batteryStats 	"time (s)" 	2423.1647232237
scalar Forest.networkTwo[77].batteryStats 	"account 0" 	0.15265937756309
scalar Forest.networkTwo[77].batteryStats 	account 	1
scalar Forest.networkTwo[77].batteryStats 	"energy (mWs)" 	145548.37328589
scalar Forest.networkTwo[77].batteryStats 	"time (s)" 	2580.6449164164
scalar Forest.networkTwo[77].batteryStats 	"account 1" 	145548.37328589
scalar Forest.networkTwo[77].batteryStats 	account 	2
scalar Forest.networkTwo[77].batteryStats 	"energy (mWs)" 	255.94536959997
scalar Forest.networkTwo[77].batteryStats 	"time (s)" 	4.903168
scalar Forest.networkTwo[77].batteryStats 	"account 2" 	255.94536959997
scalar Forest.networkTwo[77].batteryStats 	account 	3
scalar Forest.networkTwo[77].batteryStats 	"energy (mWs)" 	94.822612799991
scalar Forest.networkTwo[77].batteryStats 	"time (s)" 	1.681252
scalar Forest.networkTwo[77].batteryStats 	"account 3" 	94.822612799991
scalar Forest.networkTwo[77].batteryStats 	account 	4
scalar Forest.networkTwo[77].batteryStats 	"energy (mWs)" 	0
scalar Forest.networkTwo[77].batteryStats 	"time (s)" 	0
scalar Forest.networkTwo[77].batteryStats 	"account 4" 	0
scalar Forest.networkTwo[78].nic.mac 	nbTxFrames 	4414
scalar Forest.networkTwo[78].nic.mac 	nbRxFrames 	16464
scalar Forest.networkTwo[78].nic.mac 	nbDroppedFrames 	521
scalar Forest.networkTwo[78].nic.mac 	nbMissedAcks 	0
scalar Forest.networkTwo[78].nic.mac 	nbRecvdAcks 	0
scalar Forest.networkTwo[78].nic.mac 	nbTxAcks 	0
scalar Forest.networkTwo[78].nic.mac 	nbDuplicates 	0
scalar Forest.networkTwo[78].nic.mac 	meanBackoff 	0.0026065093167701
scalar Forest.networkTwo[78].nic.mac 	nbBackoffs 	10465
scalar Forest.networkTwo[78].nic.mac 	backoffDurations 	27.277119999999
scalar Forest.networkTwo[78].nic.phy 	nbFramesWithInterference 	12137
scalar Forest.networkTwo[78].nic.phy 	nbFramesWithoutInterference 	141153
scalar Forest.networkTwo[78].nic.phy 	nbFramesWithInterferencePartial 	12437
scalar Forest.networkTwo[78].nic.phy 	nbFramesWithoutInterferencePartial 	1430
scalar Forest.networkTwo[78].nic.phy 	nbFramesWithInterferenceDropped 	5494
scalar Forest.networkTwo[78].nic.phy 	nbFramesWithoutInterferenceDropped 	20081
scalar Forest.networkTwo[78].netwl 	nbDataPacketsForwarded 	2435
scalar Forest.networkTwo[78].netwl 	nbDataPacketsReceived 	0
scalar Forest.networkTwo[78].netwl 	nbDataPacketsSent 	2500
scalar Forest.networkTwo[78].netwl 	nbDuplicatedFloodsReceived 	23825
scalar Forest.networkTwo[78].netwl 	nbFloodsSent 	0
scalar Forest.networkTwo[78].netwl 	nbPureUnicastSent 	2500
scalar Forest.networkTwo[78].netwl 	nbRouteFloodsSent 	0
scalar Forest.networkTwo[78].netwl 	nbRouteFloodsReceived 	3
scalar Forest.networkTwo[78].netwl 	nbUnicastFloodForwarded 	2432
scalar Forest.networkTwo[78].netwl 	nbPureUnicastForwarded 	0
scalar Forest.networkTwo[78].netwl 	nbGetRouteFailures 	0
scalar Forest.networkTwo[78].netwl 	nbRoutesRecorded 	1
scalar Forest.networkTwo[78].netwl 	meanNbHops 	-nan
scalar Forest.networkTwo[78].tranl 	nbAggrPktReceived 	0
scalar Forest.networkTwo[78].tranl 	"nbAggrPktSentDown " 	0
scalar Forest.networkTwo[78].appl 	"activity duration" 	-1
attr unit  s
scalar Forest.networkTwo[78].appl 	firstPacketGeneration 	-1
attr unit  s
scalar Forest.networkTwo[78].appl 	lastPacketReception 	-2
attr unit  s
scalar Forest.networkTwo[78].appl 	nbPacketsSent 	2500
scalar Forest.networkTwo[78].appl 	nbPacketsReceived 	0
statistic Forest.networkTwo[78].appl 	latency
field count 0
field mean 0
field stddev -nan
field sum 0
field sqrsum 0
field min 0
field max 0
scalar Forest.networkTwo[78].batteryStats 	nominal 	10800000
attr unit  mW-s
scalar Forest.networkTwo[78].batteryStats 	total 	136061.95649212
attr unit  mW-s
scalar Forest.networkTwo[78].batteryStats 	lifetime 	-1
attr unit  s
scalar Forest.networkTwo[78].batteryStats 	"Mean power consumption" 	27.155939208083
attr unit  mW
scalar Forest.networkTwo[78].batteryStats 	"num devices" 	1
scalar Forest.networkTwo[78].batteryStats 	"physical layer" 	0
scalar Forest.networkTwo[78].batteryStats 	"device total (mWs)" 	136061.95649025
scalar Forest.networkTwo[78].batteryStats 	account 	0
scalar Forest.networkTwo[78].batteryStats 	"energy (mWs)" 	0.1636477158991
scalar Forest.networkTwo[78].batteryStats 	"time (s)" 	2597.5827920492
scalar Forest.networkTwo[78].batteryStats 	"account 0" 	0.1636477158991
scalar Forest.networkTwo[78].batteryStats 	account 	1
scalar Forest.networkTwo[78].batteryStats 	"energy (mWs)" 	135708.14048253
scalar Forest.networkTwo[78].batteryStats 	"time (s)" 	2406.1727035909
scalar Forest.networkTwo[78].batteryStats 	"account 1" 	135708.14048253
scalar Forest.networkTwo[78].batteryStats 	account 	2
scalar Forest.networkTwo[78].batteryStats 	"energy (mWs)" 	258.05007359997
scalar Forest.networkTwo[78].batteryStats 	"time (s)" 	4.943488
scalar Forest.networkTwo[78].batteryStats 	"account 2" 	258.05007359997
scalar Forest.networkTwo[78].batteryStats 	account 	3
scalar Forest.networkTwo[78].batteryStats 	"energy (mWs)" 	95.602286399991
scalar Forest.networkTwo[78].batteryStats 	"time (s)" 	1.695076
scalar Forest.networkTwo[78].batteryStats 	"account 3" 	95.602286399991
scalar Forest.networkTwo[78].batteryStats 	account 	4
scalar Forest.networkTwo[78].batteryStats 	"energy (mWs)" 	0
scalar Forest.networkTwo[78].batteryStats 	"time (s)" 	0
scalar Forest.networkTwo[78].batteryStats 	"account 4" 	0
scalar Forest.networkTwo[79].nic.mac 	nbTxFrames 	4420
scalar Forest.networkTwo[79].nic.mac 	nbRxFrames 	15568
scalar Forest.networkTwo[79].nic.mac 	nbDroppedFrames 	563
scalar Forest.networkTwo[79].nic.mac 	nbMissedAcks 	0
scalar Forest.networkTwo[79].nic.mac 	nbRecvdAcks 	0
scalar Forest.networkTwo[79].nic.mac 	nbTxAcks 	0
scalar Forest.networkTwo[79].nic.mac 	nbDuplicates 	0
scalar Forest.networkTwo[79].nic.mac 	meanBackoff 	0.0026444189913172
scalar Forest.networkTwo[79].nic.mac 	nbBackoffs 	10826
scalar Forest.networkTwo[79].nic.mac 	backoffDurations 	28.62848
scalar Forest.networkTwo[79].nic.phy 	nbFramesWithInterference 	11927
scalar Forest.networkTwo[79].nic.phy 	nbFramesWithoutInterference 	132330
scalar Forest.networkTwo[79].nic.phy 	nbFramesWithInterferencePartial 	11187
scalar Forest.networkTwo[79].nic.phy 	nbFramesWithoutInterferencePartial 	1574
scalar Forest.networkTwo[79].nic.phy 	nbFramesWithInterferenceDropped 	5526
scalar Forest.networkTwo[79].nic.phy 	nbFramesWithoutInterferenceDropped 	20226
scalar Forest.networkTwo[79].netwl 	nbDataPacketsForwarded 	2483
scalar Forest.networkTwo[79].netwl 	nbDataPacketsReceived 	0
scalar Forest.networkTwo[79].netwl 	nbDataPacketsSent 	2500
scalar Forest.networkTwo[79].netwl 	nbDuplicatedFloodsReceived 	23112
scalar Forest.networkTwo[79].netwl 	nbFloodsSent 	0
scalar Forest.networkTwo[79].netwl 	nbPureUnicastSent 	2500
scalar Forest.networkTwo[79].netwl 	nbRouteFloodsSent 	0
scalar Forest.networkTwo[79].netwl 	nbRouteFloodsReceived 	3
scalar Forest.networkTwo[79].netwl 	nbUnicastFloodForwarded 	2480
scalar Forest.networkTwo[79].netwl 	nbPureUnicastForwarded 	0
scalar Forest.networkTwo[79].netwl 	nbGetRouteFailures 	0
scalar Forest.networkTwo[79].netwl 	nbRoutesRecorded 	1
scalar Forest.networkTwo[79].netwl 	meanNbHops 	-nan
scalar Forest.networkTwo[79].tranl 	nbAggrPktReceived 	0
scalar Forest.networkTwo[79].tranl 	"nbAggrPktSentDown " 	0
scalar Forest.networkTwo[79].appl 	"activity duration" 	-1
attr unit  s
scalar Forest.networkTwo[79].appl 	firstPacketGeneration 	-1
attr unit  s
scalar Forest.networkTwo[79].appl 	lastPacketReception 	-2
attr unit  s
scalar Forest.networkTwo[79].appl 	nbPacketsSent 	2500
scalar Forest.networkTwo[79].appl 	nbPacketsReceived 	0
statistic Forest.networkTwo[79].appl 	latency
field count 0
field mean 0
field stddev -nan
field sum 0
field sqrsum 0
field min 0
field max 0
scalar Forest.networkTwo[79].batteryStats 	nominal 	10800000
attr unit  mW-s
scalar Forest.networkTwo[79].batteryStats 	total 	141064.73782322
attr unit  mW-s
scalar Forest.networkTwo[79].batteryStats 	lifetime 	-1
attr unit  s
scalar Forest.networkTwo[79].batteryStats 	"Mean power consumption" 	28.154419820894
attr unit  mW
scalar Forest.networkTwo[79].batteryStats 	"num devices" 	1
scalar Forest.networkTwo[79].batteryStats 	"physical layer" 	0
scalar Forest.networkTwo[79].batteryStats 	"device total (mWs)" 	141064.73782128
scalar Forest.networkTwo[79].batteryStats 	account 	0
scalar Forest.networkTwo[79].batteryStats 	"energy (mWs)" 	0.15805946494118
scalar Forest.networkTwo[79].batteryStats 	"time (s)" 	2508.8803958918
scalar Forest.networkTwo[79].batteryStats 	"account 0" 	0.15805946494118
scalar Forest.networkTwo[79].batteryStats 	account 	1
scalar Forest.networkTwo[79].batteryStats 	"energy (mWs)" 	140710.44667221
scalar Forest.networkTwo[79].batteryStats 	"time (s)" 	2494.8660757483
scalar Forest.networkTwo[79].batteryStats 	"account 1" 	140710.44667221
scalar Forest.networkTwo[79].batteryStats 	account 	2
scalar Forest.networkTwo[79].batteryStats 	"energy (mWs)" 	258.40085759997
scalar Forest.networkTwo[79].batteryStats 	"time (s)" 	4.950208
scalar Forest.networkTwo[79].batteryStats 	"account 2" 	258.40085759997
scalar Forest.networkTwo[79].batteryStats 	account 	3
scalar Forest.networkTwo[79].batteryStats 	"energy (mWs)" 	95.732231999991
scalar Forest.networkTwo[79].batteryStats 	"time (s)" 	1.69738
scalar Forest.networkTwo[79].batteryStats 	"account 3" 	95.732231999991
scalar Forest.networkTwo[79].batteryStats 	account 	4
scalar Forest.networkTwo[79].batteryStats 	"energy (mWs)" 	0
scalar Forest.networkTwo[79].batteryStats 	"time (s)" 	0
scalar Forest.networkTwo[79].batteryStats 	"account 4" 	0
scalar Forest.networkTwo[80].nic.mac 	nbTxFrames 	4435
scalar Forest.networkTwo[80].nic.mac 	nbRxFrames 	14328
scalar Forest.networkTwo[80].nic.mac 	nbDroppedFrames 	548
scalar Forest.networkTwo[80].nic.mac 	nbMissedAcks 	0
scalar Forest.networkTwo[80].nic.mac 	nbRecvdAcks 	0
scalar Forest.networkTwo[80].nic.mac 	nbTxAcks 	0
scalar Forest.networkTwo[80].nic.mac 	nbDuplicates 	0
scalar Forest.networkTwo[80].nic.mac 	meanBackoff 	0.00265199367971
scalar Forest.networkTwo[80].nic.mac 	nbBackoffs 	10759
scalar Forest.networkTwo[80].nic.mac 	backoffDurations 	28.532799999999
scalar Forest.networkTwo[80].nic.phy 	nbFramesWithInterference 	11306
scalar Forest.networkTwo[80].nic.phy 	nbFramesWithoutInterference 	116173
scalar Forest.networkTwo[80].nic.phy 	nbFramesWithInterferencePartial 	9295
scalar Forest.networkTwo[80].nic.phy 	nbFramesWithoutInterferencePartial 	1522
scalar Forest.networkTwo[80].nic.phy 	nbFramesWithInterferenceDropped 	5500
scalar Forest.networkTwo[80].nic.phy 	nbFramesWithoutInterferenceDropped 	20139
scalar Forest.networkTwo[80].netwl 	nbDataPacketsForwarded 	2483
scalar Forest.networkTwo[80].netwl 	nbDataPacketsReceived 	0
scalar Forest.networkTwo[80].netwl 	nbDataPacketsSent 	2500
scalar Forest.networkTwo[80].netwl 	nbDuplicatedFloodsReceived 	21482
scalar Forest.networkTwo[80].netwl 	nbFloodsSent 	0
scalar Forest.networkTwo[80].netwl 	nbPureUnicastSent 	2500
scalar Forest.networkTwo[80].netwl 	nbRouteFloodsSent 	0
scalar Forest.networkTwo[80].netwl 	nbRouteFloodsReceived 	3
scalar Forest.networkTwo[80].netwl 	nbUnicastFloodForwarded 	2480
scalar Forest.networkTwo[80].netwl 	nbPureUnicastForwarded 	0
scalar Forest.networkTwo[80].netwl 	nbGetRouteFailures 	0
scalar Forest.networkTwo[80].netwl 	nbRoutesRecorded 	1
scalar Forest.networkTwo[80].netwl 	meanNbHops 	-nan
scalar Forest.networkTwo[80].tranl 	nbAggrPktReceived 	0
scalar Forest.networkTwo[80].tranl 	"nbAggrPktSentDown " 	0
scalar Forest.networkTwo[80].appl 	"activity duration" 	-1
attr unit  s
scalar Forest.networkTwo[80].appl 	firstPacketGeneration 	-1
attr unit  s
scalar Forest.networkTwo[80].appl 	lastPacketReception 	-2
attr unit  s
scalar Forest.networkTwo[80].appl 	nbPacketsSent 	2500
scalar Forest.networkTwo[80].appl 	nbPacketsReceived 	0
statistic Forest.networkTwo[80].appl 	latency
field count 0
field mean 0
field stddev -nan
field sum 0
field sqrsum 0
field min 0
field max 0
scalar Forest.networkTwo[80].batteryStats 	nominal 	10800000
attr unit  mW-s
scalar Forest.networkTwo[80].batteryStats 	total 	140985.79313938
attr unit  mW-s
scalar Forest.networkTwo[80].batteryStats 	lifetime 	-1
attr unit  s
scalar Forest.networkTwo[80].batteryStats 	"Mean power consumption" 	28.138663638265
attr unit  mW
scalar Forest.networkTwo[80].batteryStats 	"num devices" 	1
scalar Forest.networkTwo[80].batteryStats 	"physical layer" 	0
scalar Forest.networkTwo[80].batteryStats 	"device total (mWs)" 	140985.79313755
scalar Forest.networkTwo[80].batteryStats 	account 	0
scalar Forest.networkTwo[80].batteryStats 	"energy (mWs)" 	0.15814756911397
scalar Forest.networkTwo[80].batteryStats 	"time (s)" 	2510.2788748249
scalar Forest.networkTwo[80].batteryStats 	"account 0" 	0.15814756911397
scalar Forest.networkTwo[80].batteryStats 	account 	1
scalar Forest.networkTwo[80].batteryStats 	"energy (mWs)" 	140630.30007638
scalar Forest.networkTwo[80].batteryStats 	"time (s)" 	2493.4450368151
scalar Forest.networkTwo[80].batteryStats 	"account 1" 	140630.30007638
scalar Forest.networkTwo[80].batteryStats 	account 	2
scalar Forest.networkTwo[80].batteryStats 	"energy (mWs)" 	259.27781759997
scalar Forest.networkTwo[80].batteryStats 	"time (s)" 	4.967008
scalar Forest.networkTwo[80].batteryStats 	"account 2" 	259.27781759997
scalar Forest.networkTwo[80].batteryStats 	account 	3
scalar Forest.networkTwo[80].batteryStats 	"energy (mWs)" 	96.057095999991
scalar Forest.networkTwo[80].batteryStats 	"time (s)" 	1.70314
scalar Forest.networkTwo[80].batteryStats 	"account 3" 	96.057095999991
scalar Forest.networkTwo[80].batteryStats 	account 	4
scalar Forest.networkTwo[80].batteryStats 	"energy (mWs)" 	0
scalar Forest.networkTwo[80].batteryStats 	"time (s)" 	0
scalar Forest.networkTwo[80].batteryStats 	"account 4" 	0
