version 2
run Nodes_in_grid-2-20130702-15:53:28-11207
attr configname Nodes_in_grid
attr datetime 20130702-15:53:28
attr experiment Nodes_in_grid
attr inifile omnetpp.ini
attr iterationvars "$0=5000, $1=5000, $2=5000, $3=5000, $4=5000, $5=5000, $6=5000, $7=5000, $8=5000, $9=2500, $10=0, $11=0, $12=0, $13=0, $14=0, $15=0, $16=0, $17=0, $18=0, $19=0, $plan=3, $sensitivity=-94dBm, $20=0"
attr iterationvars2 "$0=5000, $1=5000, $2=5000, $3=5000, $4=5000, $5=5000, $6=5000, $7=5000, $8=5000, $9=2500, $10=0, $11=0, $12=0, $13=0, $14=0, $15=0, $16=0, $17=0, $18=0, $19=0, $plan=3, $sensitivity=-94dBm, $20=0, $repetition=0"
attr measurement "$0=5000, $1=5000, $2=5000, $3=5000, $4=5000, $5=5000, $6=5000, $7=5000, $8=5000, $9=2500, $10=0, $11=0, $12=0, $13=0, $14=0, $15=0, $16=0, $17=0, $18=0, $19=0, $plan=3, $sensitivity=-94dBm, $20=0"
attr network Forest
attr plan 3
attr processid 11207
attr repetition 0
attr replication #0
attr resultdir results
attr runnumber 2
attr seedset 2
attr sensitivity -94dBm

scalar . 	plan 	3
scalar . 	sensitivity 	-94
attr unit  dBm
scalar Forest.networkOne[0].nic.mac 	nbTxFrames 	2505
scalar Forest.networkOne[0].nic.mac 	nbRxFrames 	78630
scalar Forest.networkOne[0].nic.mac 	nbDroppedFrames 	0
scalar Forest.networkOne[0].nic.mac 	nbMissedAcks 	0
scalar Forest.networkOne[0].nic.mac 	nbRecvdAcks 	0
scalar Forest.networkOne[0].nic.mac 	nbTxAcks 	0
scalar Forest.networkOne[0].nic.mac 	nbDuplicates 	0
scalar Forest.networkOne[0].nic.mac 	meanBackoff 	0.0013268975166142
scalar Forest.networkOne[0].nic.mac 	nbBackoffs 	2859
scalar Forest.networkOne[0].nic.mac 	backoffDurations 	3.7936
scalar Forest.networkOne[0].nic.phy 	nbFramesWithInterference 	16542
scalar Forest.networkOne[0].nic.phy 	nbFramesWithoutInterference 	84479
scalar Forest.networkOne[0].nic.phy 	nbFramesWithInterferencePartial 	1649
scalar Forest.networkOne[0].nic.phy 	nbFramesWithoutInterferencePartial 	4
scalar Forest.networkOne[0].nic.phy 	nbFramesWithInterferenceDropped 	1831
scalar Forest.networkOne[0].nic.phy 	nbFramesWithoutInterferenceDropped 	38
scalar Forest.networkOne[0].netwl 	nbDataPacketsForwarded 	0
scalar Forest.networkOne[0].netwl 	nbDataPacketsReceived 	58283
scalar Forest.networkOne[0].netwl 	nbDataPacketsSent 	2500
scalar Forest.networkOne[0].netwl 	nbDuplicatedFloodsReceived 	20574
scalar Forest.networkOne[0].netwl 	nbFloodsSent 	2505
scalar Forest.networkOne[0].netwl 	nbPureUnicastSent 	0
scalar Forest.networkOne[0].netwl 	nbRouteFloodsSent 	5
scalar Forest.networkOne[0].netwl 	nbRouteFloodsReceived 	0
scalar Forest.networkOne[0].netwl 	nbUnicastFloodForwarded 	0
scalar Forest.networkOne[0].netwl 	nbPureUnicastForwarded 	0
scalar Forest.networkOne[0].netwl 	nbGetRouteFailures 	2500
scalar Forest.networkOne[0].netwl 	nbRoutesRecorded 	0
scalar Forest.networkOne[0].netwl 	meanNbHops 	0.60187361666352
scalar Forest.networkOne[0].tranl 	nbAggrPktReceived 	0
scalar Forest.networkOne[0].tranl 	"nbAggrPktSentDown " 	0
scalar Forest.networkOne[0].batteryStats 	nominal 	10800000
attr unit  mW-s
scalar Forest.networkOne[0].batteryStats 	total 	229294.32415546
attr unit  mW-s
scalar Forest.networkOne[0].batteryStats 	lifetime 	-1
attr unit  s
scalar Forest.networkOne[0].batteryStats 	"Mean power consumption" 	45.767307600817
attr unit  mW
scalar Forest.networkOne[0].batteryStats 	"num devices" 	2
scalar Forest.networkOne[0].batteryStats 	"physical layer" 	0
scalar Forest.networkOne[0].batteryStats 	"device total (mWs)" 	228959.99515132
scalar Forest.networkOne[0].batteryStats 	account 	0
scalar Forest.networkOne[0].batteryStats 	"energy (mWs)" 	0.059863766447862
scalar Forest.networkOne[0].batteryStats 	"time (s)" 	950.21851504543
scalar Forest.networkOne[0].batteryStats 	"account 0" 	0.059863766447862
scalar Forest.networkOne[0].batteryStats 	account 	1
scalar Forest.networkOne[0].batteryStats 	"energy (mWs)" 	228759.23830775
scalar Forest.networkOne[0].batteryStats 	"time (s)" 	4056.0148636126
scalar Forest.networkOne[0].batteryStats 	"account 1" 	228759.23830775
scalar Forest.networkOne[0].batteryStats 	account 	2
scalar Forest.networkOne[0].batteryStats 	"energy (mWs)" 	146.435616
scalar Forest.networkOne[0].batteryStats 	"time (s)" 	2.80528
scalar Forest.networkOne[0].batteryStats 	"account 2" 	146.435616
scalar Forest.networkOne[0].batteryStats 	account 	3
scalar Forest.networkOne[0].batteryStats 	"energy (mWs)" 	54.261363801596
scalar Forest.networkOne[0].batteryStats 	"time (s)" 	0.963812
scalar Forest.networkOne[0].batteryStats 	"account 3" 	54.261363801596
scalar Forest.networkOne[0].batteryStats 	account 	4
scalar Forest.networkOne[0].batteryStats 	"energy (mWs)" 	0
scalar Forest.networkOne[0].batteryStats 	"time (s)" 	0
scalar Forest.networkOne[0].batteryStats 	"account 4" 	0
scalar Forest.networkOne[0].batteryStats 	TemperatureSensorLayer 	1
scalar Forest.networkOne[0].batteryStats 	"device total (mWs)" 	334.32900222359
scalar Forest.networkOne[0].batteryStats 	account 	0
scalar Forest.networkOne[0].batteryStats 	"energy (mWs)" 	334.32900222359
scalar Forest.networkOne[0].batteryStats 	"time (s)" 	5010.0024706581
scalar Forest.networkOne[0].batteryStats 	"account 0" 	334.32900222359
scalar Forest.networkOne[0].applSensor 	latency1 	0.0056207208105136
attr unit  s
statistic Forest.networkOne[0].applSensor 	1
field count 2393
field mean 0.0056207208105136
field stddev 0.0044057211211763
field sum 13.450384899559
field sqrsum 0.12203048391978
field min 0.003232
field max 0.059409499032
scalar Forest.networkOne[0].applSensor 	latency2 	0.005515304611474
attr unit  s
statistic Forest.networkOne[0].applSensor 	2
field count 2266
field mean 0.005515304611474
field stddev 0.0038954575755258
field sum 12.4976802496
field sqrsum 0.10329895923531
field min 0.003232
field max 0.057851060449
scalar Forest.networkOne[0].applSensor 	latency3 	0.005456173625889
attr unit  s
statistic Forest.networkOne[0].applSensor 	3
field count 1703
field mean 0.005456173625889
field stddev 0.0037552638994931
field sum 9.291863684889
field sqrsum 0.074699637409979
field min 0.003232
field max 0.048415857475
scalar Forest.networkOne[0].applSensor 	latency4 	0.0055854327720893
attr unit  s
statistic Forest.networkOne[0].applSensor 	4
field count 1064
field mean 0.0055854327720893
field stddev 0.0040846684324918
field sum 5.942900469503
field sqrsum 0.050929311767836
field min 0.003232
field max 0.047529625539
scalar Forest.networkOne[0].applSensor 	latency5 	0.0054110104766103
attr unit  s
statistic Forest.networkOne[0].applSensor 	5
field count 580
field mean 0.0054110104766103
field stddev 0.0036063491915445
field sum 3.138386076434
field sqrsum 0.024512171789726
field min 0.003232
field max 0.032998767242
scalar Forest.networkOne[0].applSensor 	latency6 	0.0053530875194905
attr unit  s
statistic Forest.networkOne[0].applSensor 	6
field count 316
field mean 0.0053530875194905
field stddev 0.0033585369031091
field sum 1.691575656159
field sqrsum 0.012608280124066
field min 0.003232
field max 0.034912
scalar Forest.networkOne[0].applSensor 	latency7 	0.016331494351679
attr unit  s
statistic Forest.networkOne[0].applSensor 	7
field count 274
field mean 0.016331494351679
field stddev 0.0063460458522247
field sum 4.47482945236
field sqrsum 0.084074989268624
field min 0.010016
field max 0.052025890565
scalar Forest.networkOne[0].applSensor 	latency8 	0.016388799726606
attr unit  s
statistic Forest.networkOne[0].applSensor 	8
field count 203
field mean 0.016388799726606
field stddev 0.0061754834856477
field sum 3.326926344501
field sqrsum 0.062227922014061
field min 0.010016
field max 0.045616413222
scalar Forest.networkOne[0].applSensor 	latency9 	0.0053718197261541
attr unit  s
statistic Forest.networkOne[0].applSensor 	9
field count 2415
field mean 0.0053718197261541
field stddev 0.0037544820045345
field sum 12.972944638662
field sqrsum 0.10371639010168
field min 0.003232
field max 0.043703647824
scalar Forest.networkOne[0].applSensor 	latency10 	0.0052086033330791
attr unit  s
statistic Forest.networkOne[0].applSensor 	10
field count 3590
field mean 0.0052086033330791
field stddev 0.0036056743226717
field sum 18.698885965754
field sqrsum 0.14405526436178
field min 0.003232
field max 0.052636704409
scalar Forest.networkOne[0].applSensor 	latency11 	0.0054657010421128
attr unit  s
statistic Forest.networkOne[0].applSensor 	11
field count 2119
field mean 0.0054657010421128
field stddev 0.0040469251586144
field sum 11.581820508237
field sqrsum 0.097990532082539
field min 0.003232
field max 0.054190765924
scalar Forest.networkOne[0].applSensor 	latency12 	0.0056732703902036
attr unit  s
statistic Forest.networkOne[0].applSensor 	12
field count 1542
field mean 0.0056732703902036
field stddev 0.0043848485905452
field sum 8.748182941694
field sqrsum 0.079259455777849
field min 0.003232
field max 0.050557283561
scalar Forest.networkOne[0].applSensor 	latency13 	0.010756386318707
attr unit  s
statistic Forest.networkOne[0].applSensor 	13
field count 1366
field mean 0.010756386318707
field stddev 0.0050130915276373
field sum 14.693223711354
field sqrsum 0.19234992380351
field min 0.006464
field max 0.050609027058
scalar Forest.networkOne[0].applSensor 	latency14 	0.0055277343842461
attr unit  s
statistic Forest.networkOne[0].applSensor 	14
field count 512
field mean 0.0055277343842461
field stddev 0.0037374784262988
field sum 2.830200004734
field sqrsum 0.022782622568844
field min 0.003232
field max 0.038919518631
scalar Forest.networkOne[0].applSensor 	latency15 	0.015778528968907
attr unit  s
statistic Forest.networkOne[0].applSensor 	15
field count 518
field mean 0.015778528968907
field stddev 0.0055621739709665
field sum 8.173278005894
field sqrsum 0.1449571356764
field min 0.009696
field max 0.047619775613
scalar Forest.networkOne[0].applSensor 	latency16 	0.015752051340075
attr unit  s
statistic Forest.networkOne[0].applSensor 	16
field count 937
field mean 0.015752051340075
field stddev 0.0059744461472348
field sum 14.75967210565
field sqrsum 0.26590470310404
field min 0.009696
field max 0.065557852778
scalar Forest.networkOne[0].applSensor 	latency17 	0.016434468562498
attr unit  s
statistic Forest.networkOne[0].applSensor 	17
field count 271
field mean 0.016434468562498
field stddev 0.0063642145949388
field sum 4.453740980437
field sqrsum 0.084130737529318
field min 0.010336
field max 0.05436621799
scalar Forest.networkOne[0].applSensor 	latency18 	0.0056138929663288
attr unit  s
statistic Forest.networkOne[0].applSensor 	18
field count 2208
field mean 0.0056138929663288
field stddev 0.0043390120165671
field sum 12.395475669654
field sqrsum 0.11113811846894
field min 0.003232
field max 0.051968693963
scalar Forest.networkOne[0].applSensor 	latency19 	0.0056714747626185
attr unit  s
statistic Forest.networkOne[0].applSensor 	19
field count 2123
field mean 0.0056714747626185
field stddev 0.004564047631597
field sum 12.040540921039
field sqrsum 0.11249001028451
field min 0.003232
field max 0.046521894096
scalar Forest.networkOne[0].applSensor 	latency20 	0.0055841837810105
attr unit  s
statistic Forest.networkOne[0].applSensor 	20
field count 1808
field mean 0.0055841837810105
field stddev 0.004295925540768
field sum 10.096204276067
field sqrsum 0.089727202255226
field min 0.003232
field max 0.053835012337
scalar Forest.networkOne[0].applSensor 	latency21 	0.0055260776729775
attr unit  s
statistic Forest.networkOne[0].applSensor 	21
field count 1244
field mean 0.0055260776729775
field stddev 0.0039397162343527
field sum 6.874440625184
field sqrsum 0.057281748314016
field min 0.003232
field max 0.050620236917
scalar Forest.networkOne[0].applSensor 	latency22 	0.011115077564807
attr unit  s
statistic Forest.networkOne[0].applSensor 	22
field count 597
field mean 0.011115077564807
field stddev 0.0054601928384881
field sum 6.63570130619
field sqrsum 0.091525303391948
field min 0.006464
field max 0.04754257041
scalar Forest.networkOne[0].applSensor 	latency23 	0.010944820268493
attr unit  s
statistic Forest.networkOne[0].applSensor 	23
field count 416
field mean 0.010944820268493
field stddev 0.0049967475229207
field sum 4.553045231693
field sqrsum 0.060193768345441
field min 0.006464
field max 0.048397533155
scalar Forest.networkOne[0].applSensor 	latency24 	0.015764581058383
attr unit  s
statistic Forest.networkOne[0].applSensor 	24
field count 339
field mean 0.015764581058383
field stddev 0.0062443422675427
field sum 5.344192978792
field sqrsum 0.097428195305537
field min 0.010016
field max 0.048416
scalar Forest.networkOne[0].applSensor 	latency25 	0.016196537139245
attr unit  s
statistic Forest.networkOne[0].applSensor 	25
field count 379
field mean 0.016196537139245
field stddev 0.0058238900570512
field sum 6.138487575774
field sqrsum 0.11224313085974
field min 0.009696
field max 0.058555651591
scalar Forest.networkOne[0].applSensor 	latency26 	0.016475113693903
attr unit  s
statistic Forest.networkOne[0].applSensor 	26
field count 278
field mean 0.016475113693903
field stddev 0.0065144129836772
field sum 4.580081606905
field sqrsum 0.08721257389768
field min 0.010656
field max 0.051623771523
scalar Forest.networkOne[0].applSensor 	latency27 	0.0054887410118499
attr unit  s
statistic Forest.networkOne[0].applSensor 	27
field count 1659
field mean 0.0054887410118499
field stddev 0.0041360383479929
field sum 9.105821338659
field sqrsum 0.078342591340316
field min 0.003232
field max 0.052250476527
scalar Forest.networkOne[0].applSensor 	latency28 	0.011099001135709
attr unit  s
statistic Forest.networkOne[0].applSensor 	28
field count 733
field mean 0.011099001135709
field stddev 0.0055400644037519
field sum 8.135567832475
field sqrsum 0.11276345016581
field min 0.006464
field max 0.061504
scalar Forest.networkOne[0].applSensor 	latency29 	0.011222273584393
attr unit  s
statistic Forest.networkOne[0].applSensor 	29
field count 774
field mean 0.011222273584393
field stddev 0.0054474602555744
field sum 8.68603975432
field sqrsum 0.12041575284937
field min 0.006464
field max 0.053851087607
scalar Forest.networkOne[0].applSensor 	latency30 	0.011034985981875
attr unit  s
statistic Forest.networkOne[0].applSensor 	30
field count 787
field mean 0.011034985981875
field stddev 0.0052357432078037
field sum 8.684533967736
field sqrsum 0.1173803340464
field min 0.006464
field max 0.053373858664
scalar Forest.networkOne[0].applSensor 	latency31 	0.010655282093189
attr unit  s
statistic Forest.networkOne[0].applSensor 	31
field count 666
field mean 0.010655282093189
field stddev 0.0047524569259601
field sum 7.096417874064
field sqrsum 0.090633922443318
field min 0.006464
field max 0.054392164494
scalar Forest.networkOne[0].applSensor 	latency32 	0.011349650609339
attr unit  s
statistic Forest.networkOne[0].applSensor 	32
field count 478
field mean 0.011349650609339
field stddev 0.0063137445980013
field sum 5.425132991264
field sqrsum 0.080588191854917
field min 0.006464
field max 0.055767809945
scalar Forest.networkOne[0].applSensor 	latency33 	0.016505451753679
attr unit  s
statistic Forest.networkOne[0].applSensor 	33
field count 361
field mean 0.016505451753679
field stddev 0.0064149296098707
field sum 5.958468083078
field sqrsum 0.11316168335493
field min 0.010016
field max 0.056330396183
scalar Forest.networkOne[0].applSensor 	latency34 	0.010550759110368
attr unit  s
statistic Forest.networkOne[0].applSensor 	34
field count 389
field mean 0.010550759110368
field stddev 0.0044371344974921
field sum 4.104245293933
field sqrsum 0.050941910495095
field min 0.006464
field max 0.038091888523
scalar Forest.networkOne[0].applSensor 	latency35 	0.010571064902254
attr unit  s
statistic Forest.networkOne[0].applSensor 	35
field count 209
field mean 0.010571064902254
field stddev 0.0060619536726325
field sum 2.209352564571
field sqrsum 0.030998644076502
field min 0.006464
field max 0.059174684835
scalar Forest.networkOne[0].applSensor 	latency36 	0.0054262939959524
attr unit  s
statistic Forest.networkOne[0].applSensor 	36
field count 1072
field mean 0.0054262939959524
field stddev 0.0041327649057227
field sum 5.816987163661
field sqrsum 0.049857090236064
field min 0.003232
field max 0.047329787338
scalar Forest.networkOne[0].applSensor 	latency37 	0.0051857517147572
attr unit  s
statistic Forest.networkOne[0].applSensor 	37
field count 1524
field mean 0.0051857517147572
field stddev 0.0032998235109577
field sum 7.90308561329
field sqrsum 0.057567135785876
field min 0.003232
field max 0.051539743211
scalar Forest.networkOne[0].applSensor 	latency38 	0.0059539516353025
attr unit  s
statistic Forest.networkOne[0].applSensor 	38
field count 800
field mean 0.0059539516353025
field stddev 0.0048161042804663
field sum 4.763161308242
field sqrsum 0.046892325552238
field min 0.003232
field max 0.053372143801
scalar Forest.networkOne[0].applSensor 	latency39 	0.011260111211895
attr unit  s
statistic Forest.networkOne[0].applSensor 	39
field count 794
field mean 0.011260111211895
field stddev 0.0054916839614766
field sum 8.940528302245
field sqrsum 0.12458710701344
field min 0.006464
field max 0.0541023572
scalar Forest.networkOne[0].applSensor 	latency40 	0.011022321389911
attr unit  s
statistic Forest.networkOne[0].applSensor 	40
field count 693
field mean 0.011022321389911
field stddev 0.0051367350959548
field sum 7.638468723208
field sqrsum 0.10245280202662
field min 0.006464
field max 0.042895115094
scalar Forest.networkOne[0].applSensor 	latency41 	0.010313848931534
attr unit  s
statistic Forest.networkOne[0].applSensor 	41
field count 399
field mean 0.010313848931534
field stddev 0.0043618001745786
field sum 4.115225723682
field sqrsum 0.050015886136874
field min 0.006464
field max 0.044819179902
scalar Forest.networkOne[0].applSensor 	latency42 	0.010555984959222
attr unit  s
statistic Forest.networkOne[0].applSensor 	42
field count 397
field mean 0.010555984959222
field stddev 0.0048974485266845
field sum 4.190726028811
field sqrsum 0.053735301748671
field min 0.006464
field max 0.048925351904
scalar Forest.networkOne[0].applSensor 	latency43 	0.016004089990581
attr unit  s
statistic Forest.networkOne[0].applSensor 	43
field count 401
field mean 0.016004089990581
field stddev 0.0057199835296726
field sum 6.417640086223
field sqrsum 0.11579577409896
field min 0.010016
field max 0.054789249212
scalar Forest.networkOne[0].applSensor 	latency44 	0.015951556662287
attr unit  s
statistic Forest.networkOne[0].applSensor 	44
field count 251
field mean 0.015951556662287
field stddev 0.0058873071018178
field sum 4.003840722234
field sqrsum 0.072532588375266
field min 0.010016
field max 0.053581269911
scalar Forest.networkOne[0].applSensor 	latency45 	0.011043005901461
attr unit  s
statistic Forest.networkOne[0].applSensor 	45
field count 661
field mean 0.011043005901461
field stddev 0.0055438501661125
field sum 7.299426900866
field sqrsum 0.10089223562199
field min 0.006464
field max 0.061355361726
scalar Forest.networkOne[0].applSensor 	latency46 	0.011103335569157
attr unit  s
statistic Forest.networkOne[0].applSensor 	46
field count 759
field mean 0.011103335569157
field stddev 0.005445497697296
field sum 8.42743169699
field sqrsum 0.11604991355764
field min 0.006464
field max 0.054069961161
scalar Forest.networkOne[0].applSensor 	latency47 	0.011035447626777
attr unit  s
statistic Forest.networkOne[0].applSensor 	47
field count 746
field mean 0.011035447626777
field stddev 0.0052302834023311
field sum 8.232443929576
field sqrsum 0.1112288228544
field min 0.006464
field max 0.056798809964
scalar Forest.networkOne[0].applSensor 	latency48 	0.010850232568243
attr unit  s
statistic Forest.networkOne[0].applSensor 	48
field count 812
field mean 0.010850232568243
field stddev 0.004819848617902
field sum 8.810388845413
field sqrsum 0.11443506089667
field min 0.006464
field max 0.045164517022
scalar Forest.networkOne[0].applSensor 	latency49 	0.010867823210347
attr unit  s
statistic Forest.networkOne[0].applSensor 	49
field count 689
field mean 0.010867823210347
field stddev 0.0052346900087258
field sum 7.487930191929
field sqrsum 0.10023006342467
field min 0.006464
field max 0.05137043032
scalar Forest.networkOne[0].applSensor 	latency50 	0.011504530745911
attr unit  s
statistic Forest.networkOne[0].applSensor 	50
field count 481
field mean 0.011504530745911
field stddev 0.006831472042855
field sum 5.533679288783
field sqrsum 0.086063508446521
field min 0.006464
field max 0.057205415754
scalar Forest.networkOne[0].applSensor 	latency51 	0.016475139591054
attr unit  s
statistic Forest.networkOne[0].applSensor 	51
field count 390
field mean 0.016475139591054
field stddev 0.006657483642313
field sum 6.425304440511
field sqrsum 0.12309907997858
field min 0.010336
field max 0.066656
scalar Forest.networkOne[0].applSensor 	latency52 	0.009959585806195
attr unit  s
statistic Forest.networkOne[0].applSensor 	52
field count 159
field mean 0.009959585806195
field stddev 0.0031633761053591
field sum 1.583574143185
field sqrsum 0.017352840404188
field min 0.006464
field max 0.029504
scalar Forest.networkOne[0].applSensor 	latency53 	0.015692782320975
attr unit  s
statistic Forest.networkOne[0].applSensor 	53
field count 160
field mean 0.015692782320975
field stddev 0.0056906133880278
field sum 2.510845171356
field sqrsum 0.044551056552149
field min 0.010336
field max 0.045665833402
scalar Forest.networkOne[0].applSensor 	latency54 	0.010902498780092
attr unit  s
statistic Forest.networkOne[0].applSensor 	54
field count 595
field mean 0.010902498780092
field stddev 0.0051321317749487
field sum 6.486986774155
field sqrsum 0.086369598665631
field min 0.006464
field max 0.051391673619
scalar Forest.networkOne[0].applSensor 	latency55 	0.010892086423293
attr unit  s
statistic Forest.networkOne[0].applSensor 	55
field count 689
field mean 0.010892086423293
field stddev 0.005000217304754
field sum 7.504647545649
field sqrsum 0.098942764732759
field min 0.006464
field max 0.050551977803
scalar Forest.networkOne[0].applSensor 	latency56 	0.011025580595462
attr unit  s
statistic Forest.networkOne[0].applSensor 	56
field count 731
field mean 0.011025580595462
field stddev 0.0054206468072509
field sum 8.059699415283
field sqrsum 0.11031275609894
field min 0.006464
field max 0.055638938284
scalar Forest.networkOne[0].applSensor 	latency57 	0.011481463184283
attr unit  s
statistic Forest.networkOne[0].applSensor 	57
field count 682
field mean 0.011481463184283
field stddev 0.0060890250455948
field sum 7.830357891681
field sqrsum 0.1151528757631
field min 0.006464
field max 0.065491386913
scalar Forest.networkOne[0].applSensor 	latency58 	0.010753935907507
attr unit  s
statistic Forest.networkOne[0].applSensor 	58
field count 603
field mean 0.010753935907507
field stddev 0.0052754989136997
field sum 6.484623352227
field sqrsum 0.08648941896482
field min 0.006464
field max 0.05297332395
scalar Forest.networkOne[0].applSensor 	latency59 	0.011111750782812
attr unit  s
statistic Forest.networkOne[0].applSensor 	59
field count 398
field mean 0.011111750782812
field stddev 0.005969888203646
field sum 4.422476811559
field sqrsum 0.063290367542927
field min 0.006464
field max 0.051944137468
scalar Forest.networkOne[0].applSensor 	latency60 	0.011192886126702
attr unit  s
statistic Forest.networkOne[0].applSensor 	60
field count 104
field mean 0.011192886126702
field stddev 0.0055576354432534
field sum 1.164060157177
field sqrsum 0.016210585891084
field min 0.006464
field max 0.037184
scalar Forest.networkOne[0].applSensor 	latency61 	0.010834589459982
attr unit  s
statistic Forest.networkOne[0].applSensor 	61
field count 114
field mean 0.010834589459982
field stddev 0.0047523515875266
field sum 1.235143198438
field sqrsum 0.015934357033461
field min 0.006464
field max 0.040164930221
scalar Forest.networkOne[0].applSensor 	latency62 	0.016239572827297
attr unit  s
statistic Forest.networkOne[0].applSensor 	62
field count 212
field mean 0.016239572827297
field stddev 0.0062477725450101
field sum 3.442789439387
field sqrsum 0.064145743464327
field min 0.009696
field max 0.058038209413
scalar Forest.networkOne[0].applSensor 	latency63 	0.010820858703791
attr unit  s
statistic Forest.networkOne[0].applSensor 	63
field count 430
field mean 0.010820858703791
field stddev 0.0048579774199969
field sum 4.65296924263
field sqrsum 0.060473498966646
field min 0.006464
field max 0.046192198966
scalar Forest.networkOne[0].applSensor 	latency64 	0.011156377614909
attr unit  s
statistic Forest.networkOne[0].applSensor 	64
field count 495
field mean 0.011156377614909
field stddev 0.0055221132379408
field sum 5.52240691938
field sqrsum 0.076673961834434
field min 0.006464
field max 0.056762078048
scalar Forest.networkOne[0].applSensor 	latency65 	0.011044565838136
attr unit  s
statistic Forest.networkOne[0].applSensor 	65
field count 558
field mean 0.011044565838136
field stddev 0.0050226840312743
field sum 6.16286773768
field sqrsum 0.082117835147588
field min 0.006464
field max 0.04634852469
scalar Forest.networkOne[0].applSensor 	latency66 	0.01609675707361
attr unit  s
statistic Forest.networkOne[0].applSensor 	66
field count 436
field mean 0.01609675707361
field stddev 0.0069429745669826
field sum 7.018186084094
field sqrsum 0.13393916618248
field min 0.009696
field max 0.081287850427
scalar Forest.networkOne[0].applSensor 	latency67 	0.016022057020126
attr unit  s
statistic Forest.networkOne[0].applSensor 	67
field count 230
field mean 0.016022057020126
field stddev 0.0060135241805913
field sum 3.685073114629
field sqrsum 0.067323657899077
field min 0.010336
field max 0.055776
scalar Forest.networkOne[0].applSensor 	latency68 	0.0109726378065
attr unit  s
statistic Forest.networkOne[0].applSensor 	68
field count 298
field mean 0.0109726378065
field stddev 0.0049424043528693
field sum 3.269846066337
field sqrsum 0.043133762722741
field min 0.006464
field max 0.040459994077
scalar Forest.networkOne[0].applSensor 	latency69 	0.016287840558439
attr unit  s
statistic Forest.networkOne[0].applSensor 	69
field count 114
field mean 0.016287840558439
field stddev 0.0054798168362102
field sum 1.856813823662
field sqrsum 0.033636695865612
field min 0.010016
field max 0.038085268214
scalar Forest.networkOne[0].applSensor 	latency70 	0.016626829189036
attr unit  s
statistic Forest.networkOne[0].applSensor 	70
field count 221
field mean 0.016626829189036
field stddev 0.0063767623009611
field sum 3.674529250777
field sqrsum 0.070041651640237
field min 0.010016
field max 0.059458451356
scalar Forest.networkOne[0].applSensor 	latency71 	0.015361527206646
attr unit  s
statistic Forest.networkOne[0].applSensor 	71
field count 65
field mean 0.015361527206646
field stddev 0.0043479493580101
field sum 0.998499268432
field sqrsum 0.016548372149503
field min 0.010336
field max 0.033767036664
scalar Forest.networkOne[0].applSensor 	latency72 	0.016458281635347
attr unit  s
statistic Forest.networkOne[0].applSensor 	72
field count 495
field mean 0.016458281635347
field stddev 0.006592861628593
field sum 8.146849409497
field sqrsum 0.15555525930243
field min 0.009696
field max 0.056338060206
scalar Forest.networkOne[0].applSensor 	latency73 	0.016404010419305
attr unit  s
statistic Forest.networkOne[0].applSensor 	73
field count 429
field mean 0.016404010419305
field stddev 0.0061185412714157
field sum 7.037320469882
field sqrsum 0.13146312055206
field min 0.010016
field max 0.062624054636
scalar Forest.networkOne[0].applSensor 	latency74 	0.016171062383368
attr unit  s
statistic Forest.networkOne[0].applSensor 	74
field count 506
field mean 0.016171062383368
field stddev 0.0059975706514419
field sum 8.182557565984
field sqrsum 0.15048592998314
field min 0.010016
field max 0.061224863934
scalar Forest.networkOne[0].applSensor 	latency75 	0.011041851012009
attr unit  s
statistic Forest.networkOne[0].applSensor 	75
field count 337
field mean 0.011041851012009
field stddev 0.0055570558497274
field sum 3.721103791047
field sqrsum 0.051463845885871
field min 0.006464
field max 0.045755800944
scalar Forest.networkOne[0].applSensor 	latency76 	0.010619376774582
attr unit  s
statistic Forest.networkOne[0].applSensor 	76
field count 268
field mean 0.010619376774582
field stddev 0.0046832110386406
field sum 2.845992975588
field sqrsum 0.036078640029446
field min 0.006464
field max 0.045627502885
scalar Forest.networkOne[0].applSensor 	latency77 	0.010753286476148
attr unit  s
statistic Forest.networkOne[0].applSensor 	77
field count 196
field mean 0.010753286476148
field stddev 0.0041916192774432
field sum 2.107644149325
field sqrsum 0.02609018740004
field min 0.006464
field max 0.028544
scalar Forest.networkOne[0].applSensor 	latency78 	0.011904727411759
attr unit  s
statistic Forest.networkOne[0].applSensor 	78
field count 108
field mean 0.011904727411759
field stddev 0.0072264367859725
field sum 1.28571056047
field sqrsum 0.020893722335333
field min 0.006784
field max 0.048540586884
scalar Forest.networkOne[0].applSensor 	latency79 	0.015292415175863
attr unit  s
statistic Forest.networkOne[0].applSensor 	79
field count 168
field mean 0.015292415175863
field stddev 0.004700899044052
field sum 2.569125749545
field sqrsum 0.042978579055378
field min 0.010016
field max 0.036288978907
scalar Forest.networkOne[0].applSensor 	latency80 	0.015355576347406
attr unit  s
statistic Forest.networkOne[0].applSensor 	80
field count 96
field mean 0.015355576347406
field stddev 0.0055246742400023
field sum 1.474135329351
field sqrsum 0.025535790014782
field min 0.010656
field max 0.04698019411
scalar Forest.networkOne[0].applSensor 	"activity duration" 	4999.5600883023
attr unit  s
scalar Forest.networkOne[0].applSensor 	firstPacketGeneration 	10.105926227914
attr unit  s
scalar Forest.networkOne[0].applSensor 	lastPacketReception 	5009.6660145302
attr unit  s
scalar Forest.networkOne[0].applSensor 	nbPacketsSent 	2500
scalar Forest.networkOne[0].applSensor 	nbPacketsReceived 	58283
statistic Forest.networkOne[0].applSensor 	latency
field count 58283
field mean 0.00874583240329
field stddev 0.0061363175553536
field sum 509.73334996095
field sqrsum 6.6526157901197
field min 0.003232
field max 0.081287850427
scalar Forest.networkOne[1].nic.mac 	nbTxFrames 	4244
scalar Forest.networkOne[1].nic.mac 	nbRxFrames 	14307
scalar Forest.networkOne[1].nic.mac 	nbDroppedFrames 	758
scalar Forest.networkOne[1].nic.mac 	nbMissedAcks 	0
scalar Forest.networkOne[1].nic.mac 	nbRecvdAcks 	0
scalar Forest.networkOne[1].nic.mac 	nbTxAcks 	0
scalar Forest.networkOne[1].nic.mac 	nbDuplicates 	0
scalar Forest.networkOne[1].nic.mac 	meanBackoff 	0.0026918928733545
scalar Forest.networkOne[1].nic.mac 	nbBackoffs 	11015
scalar Forest.networkOne[1].nic.mac 	backoffDurations 	29.651199999999
scalar Forest.networkOne[1].nic.phy 	nbFramesWithInterference 	17533
scalar Forest.networkOne[1].nic.phy 	nbFramesWithoutInterference 	102545
scalar Forest.networkOne[1].nic.phy 	nbFramesWithInterferencePartial 	2113
scalar Forest.networkOne[1].nic.phy 	nbFramesWithoutInterferencePartial 	4
scalar Forest.networkOne[1].nic.phy 	nbFramesWithInterferenceDropped 	2023
scalar Forest.networkOne[1].nic.phy 	nbFramesWithoutInterferenceDropped 	63
scalar Forest.networkOne[1].netwl 	nbDataPacketsForwarded 	2502
scalar Forest.networkOne[1].netwl 	nbDataPacketsReceived 	0
scalar Forest.networkOne[1].netwl 	nbDataPacketsSent 	2500
scalar Forest.networkOne[1].netwl 	nbDuplicatedFloodsReceived 	22066
scalar Forest.networkOne[1].netwl 	nbFloodsSent 	0
scalar Forest.networkOne[1].netwl 	nbPureUnicastSent 	2500
scalar Forest.networkOne[1].netwl 	nbRouteFloodsSent 	0
scalar Forest.networkOne[1].netwl 	nbRouteFloodsReceived 	3
scalar Forest.networkOne[1].netwl 	nbUnicastFloodForwarded 	2499
scalar Forest.networkOne[1].netwl 	nbPureUnicastForwarded 	0
scalar Forest.networkOne[1].netwl 	nbGetRouteFailures 	0
scalar Forest.networkOne[1].netwl 	nbRoutesRecorded 	1
scalar Forest.networkOne[1].netwl 	meanNbHops 	-nan
scalar Forest.networkOne[1].tranl 	nbAggrPktReceived 	0
scalar Forest.networkOne[1].tranl 	"nbAggrPktSentDown " 	0
scalar Forest.networkOne[1].batteryStats 	nominal 	10800000
attr unit  mW-s
scalar Forest.networkOne[1].batteryStats 	total 	155523.16086316
attr unit  mW-s
scalar Forest.networkOne[1].batteryStats 	lifetime 	-1
attr unit  s
scalar Forest.networkOne[1].batteryStats 	"Mean power consumption" 	31.042531769996
attr unit  mW
scalar Forest.networkOne[1].batteryStats 	"num devices" 	2
scalar Forest.networkOne[1].batteryStats 	"physical layer" 	0
scalar Forest.networkOne[1].batteryStats 	"device total (mWs)" 	155188.83185615
scalar Forest.networkOne[1].batteryStats 	account 	0
scalar Forest.networkOne[1].batteryStats 	"energy (mWs)" 	0.14225878782189
scalar Forest.networkOne[1].batteryStats 	"time (s)" 	2258.0759971729
scalar Forest.networkOne[1].batteryStats 	"account 0" 	0.14225878782189
scalar Forest.networkOne[1].batteryStats 	account 	1
scalar Forest.networkOne[1].batteryStats 	"energy (mWs)" 	154848.65122776
scalar Forest.networkOne[1].batteryStats 	"time (s)" 	2745.5434614851
scalar Forest.networkOne[1].batteryStats 	"account 1" 	154848.65122776
scalar Forest.networkOne[1].batteryStats 	account 	2
scalar Forest.networkOne[1].batteryStats 	"energy (mWs)" 	248.11787519997
scalar Forest.networkOne[1].batteryStats 	"time (s)" 	4.753216
scalar Forest.networkOne[1].batteryStats 	"account 2" 	248.11787519997
scalar Forest.networkOne[1].batteryStats 	account 	3
scalar Forest.networkOne[1].batteryStats 	"energy (mWs)" 	91.920494399992
scalar Forest.networkOne[1].batteryStats 	"time (s)" 	1.629796
scalar Forest.networkOne[1].batteryStats 	"account 3" 	91.920494399992
scalar Forest.networkOne[1].batteryStats 	account 	4
scalar Forest.networkOne[1].batteryStats 	"energy (mWs)" 	0
scalar Forest.networkOne[1].batteryStats 	"time (s)" 	0
scalar Forest.networkOne[1].batteryStats 	"account 4" 	0
scalar Forest.networkOne[1].batteryStats 	TemperatureSensorLayer 	1
scalar Forest.networkOne[1].batteryStats 	"device total (mWs)" 	334.32900222357
scalar Forest.networkOne[1].batteryStats 	account 	0
scalar Forest.networkOne[1].batteryStats 	"energy (mWs)" 	334.32900222357
scalar Forest.networkOne[1].batteryStats 	"time (s)" 	5010.0024706581
scalar Forest.networkOne[1].batteryStats 	"account 0" 	334.32900222357
scalar Forest.networkOne[1].applSensor 	"activity duration" 	-1
attr unit  s
scalar Forest.networkOne[1].applSensor 	firstPacketGeneration 	-1
attr unit  s
scalar Forest.networkOne[1].applSensor 	lastPacketReception 	-2
attr unit  s
scalar Forest.networkOne[1].applSensor 	nbPacketsSent 	2500
scalar Forest.networkOne[1].applSensor 	nbPacketsReceived 	0
statistic Forest.networkOne[1].applSensor 	latency
field count 0
field mean 0
field stddev -nan
field sum 0
field sqrsum 0
field min 0
field max 0
scalar Forest.networkOne[2].nic.mac 	nbTxFrames 	4270
scalar Forest.networkOne[2].nic.mac 	nbRxFrames 	15845
scalar Forest.networkOne[2].nic.mac 	nbDroppedFrames 	732
scalar Forest.networkOne[2].nic.mac 	nbMissedAcks 	0
scalar Forest.networkOne[2].nic.mac 	nbRecvdAcks 	0
scalar Forest.networkOne[2].nic.mac 	nbTxAcks 	0
scalar Forest.networkOne[2].nic.mac 	nbDuplicates 	0
scalar Forest.networkOne[2].nic.mac 	meanBackoff 	0.00265879996358
scalar Forest.networkOne[2].nic.mac 	nbBackoffs 	10983
scalar Forest.networkOne[2].nic.mac 	backoffDurations 	29.201599999999
scalar Forest.networkOne[2].nic.phy 	nbFramesWithInterference 	18724
scalar Forest.networkOne[2].nic.phy 	nbFramesWithoutInterference 	115797
scalar Forest.networkOne[2].nic.phy 	nbFramesWithInterferencePartial 	2790
scalar Forest.networkOne[2].nic.phy 	nbFramesWithoutInterferencePartial 	5
scalar Forest.networkOne[2].nic.phy 	nbFramesWithInterferenceDropped 	2468
scalar Forest.networkOne[2].nic.phy 	nbFramesWithoutInterferenceDropped 	57
scalar Forest.networkOne[2].netwl 	nbDataPacketsForwarded 	2502
scalar Forest.networkOne[2].netwl 	nbDataPacketsReceived 	0
scalar Forest.networkOne[2].netwl 	nbDataPacketsSent 	2500
scalar Forest.networkOne[2].netwl 	nbDuplicatedFloodsReceived 	24206
scalar Forest.networkOne[2].netwl 	nbFloodsSent 	0
scalar Forest.networkOne[2].netwl 	nbPureUnicastSent 	2500
scalar Forest.networkOne[2].netwl 	nbRouteFloodsSent 	0
scalar Forest.networkOne[2].netwl 	nbRouteFloodsReceived 	3
scalar Forest.networkOne[2].netwl 	nbUnicastFloodForwarded 	2499
scalar Forest.networkOne[2].netwl 	nbPureUnicastForwarded 	0
scalar Forest.networkOne[2].netwl 	nbGetRouteFailures 	0
scalar Forest.networkOne[2].netwl 	nbRoutesRecorded 	1
scalar Forest.networkOne[2].netwl 	meanNbHops 	-nan
scalar Forest.networkOne[2].tranl 	nbAggrPktReceived 	0
scalar Forest.networkOne[2].tranl 	"nbAggrPktSentDown " 	0
scalar Forest.networkOne[2].batteryStats 	nominal 	10800000
attr unit  mW-s
scalar Forest.networkOne[2].batteryStats 	total 	150338.54585955
attr unit  mW-s
scalar Forest.networkOne[2].batteryStats 	lifetime 	-1
attr unit  s
scalar Forest.networkOne[2].batteryStats 	"Mean power consumption" 	30.007678986195
attr unit  mW
scalar Forest.networkOne[2].batteryStats 	"num devices" 	2
scalar Forest.networkOne[2].batteryStats 	"physical layer" 	0
scalar Forest.networkOne[2].batteryStats 	"device total (mWs)" 	150004.21685238
scalar Forest.networkOne[2].batteryStats 	account 	0
scalar Forest.networkOne[2].batteryStats 	"energy (mWs)" 	0.14804998354529
scalar Forest.networkOne[2].batteryStats 	"time (s)" 	2349.9997388142
scalar Forest.networkOne[2].batteryStats 	"account 0" 	0.14804998354529
scalar Forest.networkOne[2].batteryStats 	account 	1
scalar Forest.networkOne[2].batteryStats 	"energy (mWs)" 	149661.9539528
scalar Forest.networkOne[2].batteryStats 	"time (s)" 	2653.5807438439
scalar Forest.networkOne[2].batteryStats 	"account 1" 	149661.9539528
scalar Forest.networkOne[2].batteryStats 	account 	2
scalar Forest.networkOne[2].batteryStats 	"energy (mWs)" 	249.63125759997
scalar Forest.networkOne[2].batteryStats 	"time (s)" 	4.782208
scalar Forest.networkOne[2].batteryStats 	"account 2" 	249.63125759997
scalar Forest.networkOne[2].batteryStats 	account 	3
scalar Forest.networkOne[2].batteryStats 	"energy (mWs)" 	92.483591999991
scalar Forest.networkOne[2].batteryStats 	"time (s)" 	1.63978
scalar Forest.networkOne[2].batteryStats 	"account 3" 	92.483591999991
scalar Forest.networkOne[2].batteryStats 	account 	4
scalar Forest.networkOne[2].batteryStats 	"energy (mWs)" 	0
scalar Forest.networkOne[2].batteryStats 	"time (s)" 	0
scalar Forest.networkOne[2].batteryStats 	"account 4" 	0
scalar Forest.networkOne[2].batteryStats 	TemperatureSensorLayer 	1
scalar Forest.networkOne[2].batteryStats 	"device total (mWs)" 	334.32900222357
scalar Forest.networkOne[2].batteryStats 	account 	0
scalar Forest.networkOne[2].batteryStats 	"energy (mWs)" 	334.32900222357
scalar Forest.networkOne[2].batteryStats 	"time (s)" 	5010.0024706581
scalar Forest.networkOne[2].batteryStats 	"account 0" 	334.32900222357
scalar Forest.networkOne[2].applSensor 	"activity duration" 	-1
attr unit  s
scalar Forest.networkOne[2].applSensor 	firstPacketGeneration 	-1
attr unit  s
scalar Forest.networkOne[2].applSensor 	lastPacketReception 	-2
attr unit  s
scalar Forest.networkOne[2].applSensor 	nbPacketsSent 	2500
scalar Forest.networkOne[2].applSensor 	nbPacketsReceived 	0
statistic Forest.networkOne[2].applSensor 	latency
field count 0
field mean 0
field stddev -nan
field sum 0
field sqrsum 0
field min 0
field max 0
scalar Forest.networkOne[3].nic.mac 	nbTxFrames 	4265
scalar Forest.networkOne[3].nic.mac 	nbRxFrames 	15868
scalar Forest.networkOne[3].nic.mac 	nbDroppedFrames 	737
scalar Forest.networkOne[3].nic.mac 	nbMissedAcks 	0
scalar Forest.networkOne[3].nic.mac 	nbRecvdAcks 	0
scalar Forest.networkOne[3].nic.mac 	nbTxAcks 	0
scalar Forest.networkOne[3].nic.mac 	nbDuplicates 	0
scalar Forest.networkOne[3].nic.mac 	meanBackoff 	0.0027244042013762
scalar Forest.networkOne[3].nic.mac 	nbBackoffs 	11044
scalar Forest.networkOne[3].nic.mac 	backoffDurations 	30.088319999999
scalar Forest.networkOne[3].nic.phy 	nbFramesWithInterference 	18803
scalar Forest.networkOne[3].nic.phy 	nbFramesWithoutInterference 	123899
scalar Forest.networkOne[3].nic.phy 	nbFramesWithInterferencePartial 	3657
scalar Forest.networkOne[3].nic.phy 	nbFramesWithoutInterferencePartial 	4
scalar Forest.networkOne[3].nic.phy 	nbFramesWithInterferenceDropped 	2714
scalar Forest.networkOne[3].nic.phy 	nbFramesWithoutInterferenceDropped 	57
scalar Forest.networkOne[3].netwl 	nbDataPacketsForwarded 	2502
scalar Forest.networkOne[3].netwl 	nbDataPacketsReceived 	0
scalar Forest.networkOne[3].netwl 	nbDataPacketsSent 	2500
scalar Forest.networkOne[3].netwl 	nbDuplicatedFloodsReceived 	24620
scalar Forest.networkOne[3].netwl 	nbFloodsSent 	0
scalar Forest.networkOne[3].netwl 	nbPureUnicastSent 	2500
scalar Forest.networkOne[3].netwl 	nbRouteFloodsSent 	0
scalar Forest.networkOne[3].netwl 	nbRouteFloodsReceived 	3
scalar Forest.networkOne[3].netwl 	nbUnicastFloodForwarded 	2499
scalar Forest.networkOne[3].netwl 	nbPureUnicastForwarded 	0
scalar Forest.networkOne[3].netwl 	nbGetRouteFailures 	0
scalar Forest.networkOne[3].netwl 	nbRoutesRecorded 	1
scalar Forest.networkOne[3].netwl 	meanNbHops 	-nan
scalar Forest.networkOne[3].tranl 	nbAggrPktReceived 	0
scalar Forest.networkOne[3].tranl 	"nbAggrPktSentDown " 	0
scalar Forest.networkOne[3].batteryStats 	nominal 	10800000
attr unit  mW-s
scalar Forest.networkOne[3].batteryStats 	total 	152507.16857428
attr unit  mW-s
scalar Forest.networkOne[3].batteryStats 	lifetime 	-1
attr unit  s
scalar Forest.networkOne[3].batteryStats 	"Mean power consumption" 	30.440537598027
attr unit  mW
scalar Forest.networkOne[3].batteryStats 	"num devices" 	2
scalar Forest.networkOne[3].batteryStats 	"physical layer" 	0
scalar Forest.networkOne[3].batteryStats 	"device total (mWs)" 	152172.8395672
scalar Forest.networkOne[3].batteryStats 	account 	0
scalar Forest.networkOne[3].batteryStats 	"energy (mWs)" 	0.14562760939843
scalar Forest.networkOne[3].batteryStats 	"time (s)" 	2311.5493555307
scalar Forest.networkOne[3].batteryStats 	"account 0" 	0.14562760939843
scalar Forest.networkOne[3].batteryStats 	account 	1
scalar Forest.networkOne[3].batteryStats 	"energy (mWs)" 	151830.97969799
scalar Forest.networkOne[3].batteryStats 	"time (s)" 	2692.0386471274
scalar Forest.networkOne[3].batteryStats 	"account 1" 	151830.97969799
scalar Forest.networkOne[3].batteryStats 	account 	2
scalar Forest.networkOne[3].batteryStats 	"energy (mWs)" 	249.33893759997
scalar Forest.networkOne[3].batteryStats 	"time (s)" 	4.776608
scalar Forest.networkOne[3].batteryStats 	"account 2" 	249.33893759997
scalar Forest.networkOne[3].batteryStats 	account 	3
scalar Forest.networkOne[3].batteryStats 	"energy (mWs)" 	92.375303999991
scalar Forest.networkOne[3].batteryStats 	"time (s)" 	1.63786
scalar Forest.networkOne[3].batteryStats 	"account 3" 	92.375303999991
scalar Forest.networkOne[3].batteryStats 	account 	4
scalar Forest.networkOne[3].batteryStats 	"energy (mWs)" 	0
scalar Forest.networkOne[3].batteryStats 	"time (s)" 	0
scalar Forest.networkOne[3].batteryStats 	"account 4" 	0
scalar Forest.networkOne[3].batteryStats 	TemperatureSensorLayer 	1
scalar Forest.networkOne[3].batteryStats 	"device total (mWs)" 	334.32900222357
scalar Forest.networkOne[3].batteryStats 	account 	0
scalar Forest.networkOne[3].batteryStats 	"energy (mWs)" 	334.32900222357
scalar Forest.networkOne[3].batteryStats 	"time (s)" 	5010.0024706581
scalar Forest.networkOne[3].batteryStats 	"account 0" 	334.32900222357
scalar Forest.networkOne[3].applSensor 	"activity duration" 	-1
attr unit  s
scalar Forest.networkOne[3].applSensor 	firstPacketGeneration 	-1
attr unit  s
scalar Forest.networkOne[3].applSensor 	lastPacketReception 	-2
attr unit  s
scalar Forest.networkOne[3].applSensor 	nbPacketsSent 	2500
scalar Forest.networkOne[3].applSensor 	nbPacketsReceived 	0
statistic Forest.networkOne[3].applSensor 	latency
field count 0
field mean 0
field stddev -nan
field sum 0
field sqrsum 0
field min 0
field max 0
scalar Forest.networkOne[4].nic.mac 	nbTxFrames 	5920
scalar Forest.networkOne[4].nic.mac 	nbRxFrames 	17142
scalar Forest.networkOne[4].nic.mac 	nbDroppedFrames 	733
scalar Forest.networkOne[4].nic.mac 	nbMissedAcks 	0
scalar Forest.networkOne[4].nic.mac 	nbRecvdAcks 	0
scalar Forest.networkOne[4].nic.mac 	nbTxAcks 	0
scalar Forest.networkOne[4].nic.mac 	nbDuplicates 	0
scalar Forest.networkOne[4].nic.mac 	meanBackoff 	0.0025135145960101
scalar Forest.networkOne[4].nic.mac 	nbBackoffs 	12983
scalar Forest.networkOne[4].nic.mac 	backoffDurations 	32.632959999999
scalar Forest.networkOne[4].nic.phy 	nbFramesWithInterference 	18507
scalar Forest.networkOne[4].nic.phy 	nbFramesWithoutInterference 	121122
scalar Forest.networkOne[4].nic.phy 	nbFramesWithInterferencePartial 	4262
scalar Forest.networkOne[4].nic.phy 	nbFramesWithoutInterferencePartial 	3
scalar Forest.networkOne[4].nic.phy 	nbFramesWithInterferenceDropped 	2781
scalar Forest.networkOne[4].nic.phy 	nbFramesWithoutInterferenceDropped 	71
scalar Forest.networkOne[4].netwl 	nbDataPacketsForwarded 	4153
scalar Forest.networkOne[4].netwl 	nbDataPacketsReceived 	0
scalar Forest.networkOne[4].netwl 	nbDataPacketsSent 	2500
scalar Forest.networkOne[4].netwl 	nbDuplicatedFloodsReceived 	24606
scalar Forest.networkOne[4].netwl 	nbFloodsSent 	0
scalar Forest.networkOne[4].netwl 	nbPureUnicastSent 	2500
scalar Forest.networkOne[4].netwl 	nbRouteFloodsSent 	0
scalar Forest.networkOne[4].netwl 	nbRouteFloodsReceived 	3
scalar Forest.networkOne[4].netwl 	nbUnicastFloodForwarded 	2499
scalar Forest.networkOne[4].netwl 	nbPureUnicastForwarded 	1651
scalar Forest.networkOne[4].netwl 	nbGetRouteFailures 	0
scalar Forest.networkOne[4].netwl 	nbRoutesRecorded 	1
scalar Forest.networkOne[4].netwl 	meanNbHops 	-nan
scalar Forest.networkOne[4].tranl 	nbAggrPktReceived 	0
scalar Forest.networkOne[4].tranl 	"nbAggrPktSentDown " 	0
scalar Forest.networkOne[4].batteryStats 	nominal 	10800000
attr unit  mW-s
scalar Forest.networkOne[4].batteryStats 	total 	151661.16409276
attr unit  mW-s
scalar Forest.networkOne[4].batteryStats 	lifetime 	-1
attr unit  s
scalar Forest.networkOne[4].batteryStats 	"Mean power consumption" 	30.271674511337
attr unit  mW
scalar Forest.networkOne[4].batteryStats 	"num devices" 	2
scalar Forest.networkOne[4].batteryStats 	"physical layer" 	0
scalar Forest.networkOne[4].batteryStats 	"device total (mWs)" 	151326.83508345
scalar Forest.networkOne[4].batteryStats 	account 	0
scalar Forest.networkOne[4].batteryStats 	"energy (mWs)" 	0.14656391900781
scalar Forest.networkOne[4].batteryStats 	"time (s)" 	2326.4114128224
scalar Forest.networkOne[4].batteryStats 	"account 0" 	0.14656391900781
scalar Forest.networkOne[4].batteryStats 	account 	1
scalar Forest.networkOne[4].batteryStats 	"energy (mWs)" 	150852.36968913
scalar Forest.networkOne[4].batteryStats 	"time (s)" 	2674.6874058357
scalar Forest.networkOne[4].batteryStats 	"account 1" 	150852.36968913
scalar Forest.networkOne[4].batteryStats 	account 	2
scalar Forest.networkOne[4].batteryStats 	"energy (mWs)" 	346.1001984
scalar Forest.networkOne[4].batteryStats 	"time (s)" 	6.630272
scalar Forest.networkOne[4].batteryStats 	"account 2" 	346.1001984
scalar Forest.networkOne[4].batteryStats 	account 	3
scalar Forest.networkOne[4].batteryStats 	"energy (mWs)" 	128.21863199999
scalar Forest.networkOne[4].batteryStats 	"time (s)" 	2.27338
scalar Forest.networkOne[4].batteryStats 	"account 3" 	128.21863199999
scalar Forest.networkOne[4].batteryStats 	account 	4
scalar Forest.networkOne[4].batteryStats 	"energy (mWs)" 	0
scalar Forest.networkOne[4].batteryStats 	"time (s)" 	0
scalar Forest.networkOne[4].batteryStats 	"account 4" 	0
scalar Forest.networkOne[4].batteryStats 	TemperatureSensorLayer 	1
scalar Forest.networkOne[4].batteryStats 	"device total (mWs)" 	334.32900222356
scalar Forest.networkOne[4].batteryStats 	account 	0
scalar Forest.networkOne[4].batteryStats 	"energy (mWs)" 	334.32900222356
scalar Forest.networkOne[4].batteryStats 	"time (s)" 	5010.0024706581
scalar Forest.networkOne[4].batteryStats 	"account 0" 	334.32900222356
scalar Forest.networkOne[4].applSensor 	"activity duration" 	-1
attr unit  s
scalar Forest.networkOne[4].applSensor 	firstPacketGeneration 	-1
attr unit  s
scalar Forest.networkOne[4].applSensor 	lastPacketReception 	-2
attr unit  s
scalar Forest.networkOne[4].applSensor 	nbPacketsSent 	2500
scalar Forest.networkOne[4].applSensor 	nbPacketsReceived 	0
statistic Forest.networkOne[4].applSensor 	latency
field count 0
field mean 0
field stddev -nan
field sum 0
field sqrsum 0
field min 0
field max 0
scalar Forest.networkOne[5].nic.mac 	nbTxFrames 	4280
scalar Forest.networkOne[5].nic.mac 	nbRxFrames 	14932
scalar Forest.networkOne[5].nic.mac 	nbDroppedFrames 	722
scalar Forest.networkOne[5].nic.mac 	nbMissedAcks 	0
scalar Forest.networkOne[5].nic.mac 	nbRecvdAcks 	0
scalar Forest.networkOne[5].nic.mac 	nbTxAcks 	0
scalar Forest.networkOne[5].nic.mac 	nbDuplicates 	0
scalar Forest.networkOne[5].nic.mac 	meanBackoff 	0.0027312166440524
scalar Forest.networkOne[5].nic.mac 	nbBackoffs 	11055
scalar Forest.networkOne[5].nic.mac 	backoffDurations 	30.193599999999
scalar Forest.networkOne[5].nic.phy 	nbFramesWithInterference 	17611
scalar Forest.networkOne[5].nic.phy 	nbFramesWithoutInterference 	116528
scalar Forest.networkOne[5].nic.phy 	nbFramesWithInterferencePartial 	4383
scalar Forest.networkOne[5].nic.phy 	nbFramesWithoutInterferencePartial 	3
scalar Forest.networkOne[5].nic.phy 	nbFramesWithInterferenceDropped 	2655
scalar Forest.networkOne[5].nic.phy 	nbFramesWithoutInterferenceDropped 	64
scalar Forest.networkOne[5].netwl 	nbDataPacketsForwarded 	2502
scalar Forest.networkOne[5].netwl 	nbDataPacketsReceived 	0
scalar Forest.networkOne[5].netwl 	nbDataPacketsSent 	2500
scalar Forest.networkOne[5].netwl 	nbDuplicatedFloodsReceived 	23996
scalar Forest.networkOne[5].netwl 	nbFloodsSent 	0
scalar Forest.networkOne[5].netwl 	nbPureUnicastSent 	2500
scalar Forest.networkOne[5].netwl 	nbRouteFloodsSent 	0
scalar Forest.networkOne[5].netwl 	nbRouteFloodsReceived 	3
scalar Forest.networkOne[5].netwl 	nbUnicastFloodForwarded 	2499
scalar Forest.networkOne[5].netwl 	nbPureUnicastForwarded 	0
scalar Forest.networkOne[5].netwl 	nbGetRouteFailures 	0
scalar Forest.networkOne[5].netwl 	nbRoutesRecorded 	1
scalar Forest.networkOne[5].netwl 	meanNbHops 	-nan
scalar Forest.networkOne[5].tranl 	nbAggrPktReceived 	0
scalar Forest.networkOne[5].tranl 	"nbAggrPktSentDown " 	0
scalar Forest.networkOne[5].batteryStats 	nominal 	10800000
attr unit  mW-s
scalar Forest.networkOne[5].batteryStats 	total 	157913.7877316
attr unit  mW-s
scalar Forest.networkOne[5].batteryStats 	lifetime 	-1
attr unit  s
scalar Forest.networkOne[5].batteryStats 	"Mean power consumption" 	31.519702566306
attr unit  mW
scalar Forest.networkOne[5].batteryStats 	"num devices" 	2
scalar Forest.networkOne[5].batteryStats 	"physical layer" 	0
scalar Forest.networkOne[5].batteryStats 	"device total (mWs)" 	157579.45872461
scalar Forest.networkOne[5].batteryStats 	account 	0
scalar Forest.networkOne[5].batteryStats 	"energy (mWs)" 	0.13958821490174
scalar Forest.networkOne[5].batteryStats 	"time (s)" 	2215.6859508213
scalar Forest.networkOne[5].batteryStats 	"account 0" 	0.13958821490174
scalar Forest.networkOne[5].batteryStats 	account 	1
scalar Forest.networkOne[5].batteryStats 	"energy (mWs)" 	157236.39972999
scalar Forest.networkOne[5].batteryStats 	"time (s)" 	2787.8794278368
scalar Forest.networkOne[5].batteryStats 	"account 1" 	157236.39972999
scalar Forest.networkOne[5].batteryStats 	account 	2
scalar Forest.networkOne[5].batteryStats 	"energy (mWs)" 	250.21923839997
scalar Forest.networkOne[5].batteryStats 	"time (s)" 	4.793472
scalar Forest.networkOne[5].batteryStats 	"account 2" 	250.21923839997
scalar Forest.networkOne[5].batteryStats 	account 	3
scalar Forest.networkOne[5].batteryStats 	"energy (mWs)" 	92.700167999991
scalar Forest.networkOne[5].batteryStats 	"time (s)" 	1.64362
scalar Forest.networkOne[5].batteryStats 	"account 3" 	92.700167999991
scalar Forest.networkOne[5].batteryStats 	account 	4
scalar Forest.networkOne[5].batteryStats 	"energy (mWs)" 	0
scalar Forest.networkOne[5].batteryStats 	"time (s)" 	0
scalar Forest.networkOne[5].batteryStats 	"account 4" 	0
scalar Forest.networkOne[5].batteryStats 	TemperatureSensorLayer 	1
scalar Forest.networkOne[5].batteryStats 	"device total (mWs)" 	334.32900222357
scalar Forest.networkOne[5].batteryStats 	account 	0
scalar Forest.networkOne[5].batteryStats 	"energy (mWs)" 	334.32900222357
scalar Forest.networkOne[5].batteryStats 	"time (s)" 	5010.0024706581
scalar Forest.networkOne[5].batteryStats 	"account 0" 	334.32900222357
scalar Forest.networkOne[5].applSensor 	"activity duration" 	-1
attr unit  s
scalar Forest.networkOne[5].applSensor 	firstPacketGeneration 	-1
attr unit  s
scalar Forest.networkOne[5].applSensor 	lastPacketReception 	-2
attr unit  s
scalar Forest.networkOne[5].applSensor 	nbPacketsSent 	2500
scalar Forest.networkOne[5].applSensor 	nbPacketsReceived 	0
statistic Forest.networkOne[5].applSensor 	latency
field count 0
field mean 0
field stddev -nan
field sum 0
field sqrsum 0
field min 0
field max 0
scalar Forest.networkOne[6].nic.mac 	nbTxFrames 	4336
scalar Forest.networkOne[6].nic.mac 	nbRxFrames 	14347
scalar Forest.networkOne[6].nic.mac 	nbDroppedFrames 	666
scalar Forest.networkOne[6].nic.mac 	nbMissedAcks 	0
scalar Forest.networkOne[6].nic.mac 	nbRecvdAcks 	0
scalar Forest.networkOne[6].nic.mac 	nbTxAcks 	0
scalar Forest.networkOne[6].nic.mac 	nbDuplicates 	0
scalar Forest.networkOne[6].nic.mac 	meanBackoff 	0.0026586702751465
scalar Forest.networkOne[6].nic.mac 	nbBackoffs 	11085
scalar Forest.networkOne[6].nic.mac 	backoffDurations 	29.471359999999
scalar Forest.networkOne[6].nic.phy 	nbFramesWithInterference 	16387
scalar Forest.networkOne[6].nic.phy 	nbFramesWithoutInterference 	102980
scalar Forest.networkOne[6].nic.phy 	nbFramesWithInterferencePartial 	4113
scalar Forest.networkOne[6].nic.phy 	nbFramesWithoutInterferencePartial 	3
scalar Forest.networkOne[6].nic.phy 	nbFramesWithInterferenceDropped 	2355
scalar Forest.networkOne[6].nic.phy 	nbFramesWithoutInterferenceDropped 	45
scalar Forest.networkOne[6].netwl 	nbDataPacketsForwarded 	2502
scalar Forest.networkOne[6].netwl 	nbDataPacketsReceived 	0
scalar Forest.networkOne[6].netwl 	nbDataPacketsSent 	2500
scalar Forest.networkOne[6].netwl 	nbDuplicatedFloodsReceived 	22975
scalar Forest.networkOne[6].netwl 	nbFloodsSent 	0
scalar Forest.networkOne[6].netwl 	nbPureUnicastSent 	2500
scalar Forest.networkOne[6].netwl 	nbRouteFloodsSent 	0
scalar Forest.networkOne[6].netwl 	nbRouteFloodsReceived 	3
scalar Forest.networkOne[6].netwl 	nbUnicastFloodForwarded 	2499
scalar Forest.networkOne[6].netwl 	nbPureUnicastForwarded 	0
scalar Forest.networkOne[6].netwl 	nbGetRouteFailures 	0
scalar Forest.networkOne[6].netwl 	nbRoutesRecorded 	1
scalar Forest.networkOne[6].netwl 	meanNbHops 	-nan
scalar Forest.networkOne[6].tranl 	nbAggrPktReceived 	0
scalar Forest.networkOne[6].tranl 	"nbAggrPktSentDown " 	0
scalar Forest.networkOne[6].batteryStats 	nominal 	10800000
attr unit  mW-s
scalar Forest.networkOne[6].batteryStats 	total 	152959.15971993
attr unit  mW-s
scalar Forest.networkOne[6].batteryStats 	lifetime 	-1
attr unit  s
scalar Forest.networkOne[6].batteryStats 	"Mean power consumption" 	30.53075534708
attr unit  mW
scalar Forest.networkOne[6].batteryStats 	"num devices" 	2
scalar Forest.networkOne[6].batteryStats 	"physical layer" 	0
scalar Forest.networkOne[6].batteryStats 	"device total (mWs)" 	152624.83071258
scalar Forest.networkOne[6].batteryStats 	account 	0
scalar Forest.networkOne[6].batteryStats 	"energy (mWs)" 	0.14512235174033
scalar Forest.networkOne[6].batteryStats 	"time (s)" 	2303.5293927036
scalar Forest.networkOne[6].batteryStats 	"account 0" 	0.14512235174033
scalar Forest.networkOne[6].batteryStats 	account 	1
scalar Forest.networkOne[6].batteryStats 	"energy (mWs)" 	152277.27937423
scalar Forest.networkOne[6].batteryStats 	"time (s)" 	2699.9517619544
scalar Forest.networkOne[6].batteryStats 	"account 1" 	152277.27937423
scalar Forest.networkOne[6].batteryStats 	account 	2
scalar Forest.networkOne[6].batteryStats 	"energy (mWs)" 	253.49322239997
scalar Forest.networkOne[6].batteryStats 	"time (s)" 	4.856192
scalar Forest.networkOne[6].batteryStats 	"account 2" 	253.49322239997
scalar Forest.networkOne[6].batteryStats 	account 	3
scalar Forest.networkOne[6].batteryStats 	"energy (mWs)" 	93.912993599991
scalar Forest.networkOne[6].batteryStats 	"time (s)" 	1.665124
scalar Forest.networkOne[6].batteryStats 	"account 3" 	93.912993599991
scalar Forest.networkOne[6].batteryStats 	account 	4
scalar Forest.networkOne[6].batteryStats 	"energy (mWs)" 	0
scalar Forest.networkOne[6].batteryStats 	"time (s)" 	0
scalar Forest.networkOne[6].batteryStats 	"account 4" 	0
scalar Forest.networkOne[6].batteryStats 	TemperatureSensorLayer 	1
scalar Forest.networkOne[6].batteryStats 	"device total (mWs)" 	334.32900222357
scalar Forest.networkOne[6].batteryStats 	account 	0
scalar Forest.networkOne[6].batteryStats 	"energy (mWs)" 	334.32900222357
scalar Forest.networkOne[6].batteryStats 	"time (s)" 	5010.0024706581
scalar Forest.networkOne[6].batteryStats 	"account 0" 	334.32900222357
scalar Forest.networkOne[6].applSensor 	"activity duration" 	-1
attr unit  s
scalar Forest.networkOne[6].applSensor 	firstPacketGeneration 	-1
attr unit  s
scalar Forest.networkOne[6].applSensor 	lastPacketReception 	-2
attr unit  s
scalar Forest.networkOne[6].applSensor 	nbPacketsSent 	2500
scalar Forest.networkOne[6].applSensor 	nbPacketsReceived 	0
statistic Forest.networkOne[6].applSensor 	latency
field count 0
field mean 0
field stddev -nan
field sum 0
field sqrsum 0
field min 0
field max 0
scalar Forest.networkOne[7].nic.mac 	nbTxFrames 	4367
scalar Forest.networkOne[7].nic.mac 	nbRxFrames 	12883
scalar Forest.networkOne[7].nic.mac 	nbDroppedFrames 	635
scalar Forest.networkOne[7].nic.mac 	nbMissedAcks 	0
scalar Forest.networkOne[7].nic.mac 	nbRecvdAcks 	0
scalar Forest.networkOne[7].nic.mac 	nbTxAcks 	0
scalar Forest.networkOne[7].nic.mac 	nbDuplicates 	0
scalar Forest.networkOne[7].nic.mac 	meanBackoff 	0.0027207370607894
scalar Forest.networkOne[7].nic.mac 	nbBackoffs 	11071
scalar Forest.networkOne[7].nic.mac 	backoffDurations 	30.121279999999
scalar Forest.networkOne[7].nic.phy 	nbFramesWithInterference 	14802
scalar Forest.networkOne[7].nic.phy 	nbFramesWithoutInterference 	86320
scalar Forest.networkOne[7].nic.phy 	nbFramesWithInterferencePartial 	3448
scalar Forest.networkOne[7].nic.phy 	nbFramesWithoutInterferencePartial 	1
scalar Forest.networkOne[7].nic.phy 	nbFramesWithInterferenceDropped 	1957
scalar Forest.networkOne[7].nic.phy 	nbFramesWithoutInterferenceDropped 	64
scalar Forest.networkOne[7].netwl 	nbDataPacketsForwarded 	2502
scalar Forest.networkOne[7].netwl 	nbDataPacketsReceived 	0
scalar Forest.networkOne[7].netwl 	nbDataPacketsSent 	2500
scalar Forest.networkOne[7].netwl 	nbDuplicatedFloodsReceived 	20862
scalar Forest.networkOne[7].netwl 	nbFloodsSent 	0
scalar Forest.networkOne[7].netwl 	nbPureUnicastSent 	2500
scalar Forest.networkOne[7].netwl 	nbRouteFloodsSent 	0
scalar Forest.networkOne[7].netwl 	nbRouteFloodsReceived 	3
scalar Forest.networkOne[7].netwl 	nbUnicastFloodForwarded 	2499
scalar Forest.networkOne[7].netwl 	nbPureUnicastForwarded 	0
scalar Forest.networkOne[7].netwl 	nbGetRouteFailures 	0
scalar Forest.networkOne[7].netwl 	nbRoutesRecorded 	1
scalar Forest.networkOne[7].netwl 	meanNbHops 	-nan
scalar Forest.networkOne[7].tranl 	nbAggrPktReceived 	0
scalar Forest.networkOne[7].tranl 	"nbAggrPktSentDown " 	0
scalar Forest.networkOne[7].batteryStats 	nominal 	10800000
attr unit  mW-s
scalar Forest.networkOne[7].batteryStats 	total 	155154.68098744
attr unit  mW-s
scalar Forest.networkOne[7].batteryStats 	lifetime 	-1
attr unit  s
scalar Forest.networkOne[7].batteryStats 	"Mean power consumption" 	30.968982928878
attr unit  mW
scalar Forest.networkOne[7].batteryStats 	"num devices" 	2
scalar Forest.networkOne[7].batteryStats 	"physical layer" 	0
scalar Forest.networkOne[7].batteryStats 	"device total (mWs)" 	154820.35198033
scalar Forest.networkOne[7].batteryStats 	account 	0
scalar Forest.networkOne[7].batteryStats 	"energy (mWs)" 	0.14266974244316
scalar Forest.networkOne[7].batteryStats 	"time (s)" 	2264.5990863994
scalar Forest.networkOne[7].batteryStats 	"account 0" 	0.14266974244316
scalar Forest.networkOne[7].batteryStats 	account 	1
scalar Forest.networkOne[7].batteryStats 	"energy (mWs)" 	154470.32266579
scalar Forest.networkOne[7].batteryStats 	"time (s)" 	2738.8355082587
scalar Forest.networkOne[7].batteryStats 	"account 1" 	154470.32266579
scalar Forest.networkOne[7].batteryStats 	account 	2
scalar Forest.networkOne[7].batteryStats 	"energy (mWs)" 	255.30226559997
scalar Forest.networkOne[7].batteryStats 	"time (s)" 	4.890848
scalar Forest.networkOne[7].batteryStats 	"account 2" 	255.30226559997
scalar Forest.networkOne[7].batteryStats 	account 	3
scalar Forest.networkOne[7].batteryStats 	"energy (mWs)" 	94.584379199991
scalar Forest.networkOne[7].batteryStats 	"time (s)" 	1.677028
scalar Forest.networkOne[7].batteryStats 	"account 3" 	94.584379199991
scalar Forest.networkOne[7].batteryStats 	account 	4
scalar Forest.networkOne[7].batteryStats 	"energy (mWs)" 	0
scalar Forest.networkOne[7].batteryStats 	"time (s)" 	0
scalar Forest.networkOne[7].batteryStats 	"account 4" 	0
scalar Forest.networkOne[7].batteryStats 	TemperatureSensorLayer 	1
scalar Forest.networkOne[7].batteryStats 	"device total (mWs)" 	334.32900222357
scalar Forest.networkOne[7].batteryStats 	account 	0
scalar Forest.networkOne[7].batteryStats 	"energy (mWs)" 	334.32900222357
scalar Forest.networkOne[7].batteryStats 	"time (s)" 	5010.0024706581
scalar Forest.networkOne[7].batteryStats 	"account 0" 	334.32900222357
scalar Forest.networkOne[7].applSensor 	"activity duration" 	-1
attr unit  s
scalar Forest.networkOne[7].applSensor 	firstPacketGeneration 	-1
attr unit  s
scalar Forest.networkOne[7].applSensor 	lastPacketReception 	-2
attr unit  s
scalar Forest.networkOne[7].applSensor 	nbPacketsSent 	2500
scalar Forest.networkOne[7].applSensor 	nbPacketsReceived 	0
statistic Forest.networkOne[7].applSensor 	latency
field count 0
field mean 0
field stddev -nan
field sum 0
field sqrsum 0
field min 0
field max 0
scalar Forest.networkOne[8].nic.mac 	nbTxFrames 	4352
scalar Forest.networkOne[8].nic.mac 	nbRxFrames 	11175
scalar Forest.networkOne[8].nic.mac 	nbDroppedFrames 	616
scalar Forest.networkOne[8].nic.mac 	nbMissedAcks 	0
scalar Forest.networkOne[8].nic.mac 	nbRecvdAcks 	0
scalar Forest.networkOne[8].nic.mac 	nbTxAcks 	0
scalar Forest.networkOne[8].nic.mac 	nbDuplicates 	0
scalar Forest.networkOne[8].nic.mac 	meanBackoff 	0.0027127438634911
scalar Forest.networkOne[8].nic.mac 	nbBackoffs 	10959
scalar Forest.networkOne[8].nic.mac 	backoffDurations 	29.728959999999
scalar Forest.networkOne[8].nic.phy 	nbFramesWithInterference 	12747
scalar Forest.networkOne[8].nic.phy 	nbFramesWithoutInterference 	65979
scalar Forest.networkOne[8].nic.phy 	nbFramesWithInterferencePartial 	2336
scalar Forest.networkOne[8].nic.phy 	nbFramesWithoutInterferencePartial 	7
scalar Forest.networkOne[8].nic.phy 	nbFramesWithInterferenceDropped 	1689
scalar Forest.networkOne[8].nic.phy 	nbFramesWithoutInterferenceDropped 	72
scalar Forest.networkOne[8].netwl 	nbDataPacketsForwarded 	2468
scalar Forest.networkOne[8].netwl 	nbDataPacketsReceived 	0
scalar Forest.networkOne[8].netwl 	nbDataPacketsSent 	2500
scalar Forest.networkOne[8].netwl 	nbDuplicatedFloodsReceived 	18113
scalar Forest.networkOne[8].netwl 	nbFloodsSent 	0
scalar Forest.networkOne[8].netwl 	nbPureUnicastSent 	2500
scalar Forest.networkOne[8].netwl 	nbRouteFloodsSent 	0
scalar Forest.networkOne[8].netwl 	nbRouteFloodsReceived 	3
scalar Forest.networkOne[8].netwl 	nbUnicastFloodForwarded 	2465
scalar Forest.networkOne[8].netwl 	nbPureUnicastForwarded 	0
scalar Forest.networkOne[8].netwl 	nbGetRouteFailures 	0
scalar Forest.networkOne[8].netwl 	nbRoutesRecorded 	1
scalar Forest.networkOne[8].netwl 	meanNbHops 	-nan
scalar Forest.networkOne[8].tranl 	nbAggrPktReceived 	0
scalar Forest.networkOne[8].tranl 	"nbAggrPktSentDown " 	0
scalar Forest.networkOne[8].batteryStats 	nominal 	10800000
attr unit  mW-s
scalar Forest.networkOne[8].batteryStats 	total 	148219.77822819
attr unit  mW-s
scalar Forest.networkOne[8].batteryStats 	lifetime 	-1
attr unit  s
scalar Forest.networkOne[8].batteryStats 	"Mean power consumption" 	29.584771483899
attr unit  mW
scalar Forest.networkOne[8].batteryStats 	"num devices" 	2
scalar Forest.networkOne[8].batteryStats 	"physical layer" 	0
scalar Forest.networkOne[8].batteryStats 	"device total (mWs)" 	147885.4492209
scalar Forest.networkOne[8].batteryStats 	account 	0
scalar Forest.networkOne[8].batteryStats 	"energy (mWs)" 	0.15041626384662
scalar Forest.networkOne[8].batteryStats 	"time (s)" 	2387.5597435971
scalar Forest.networkOne[8].batteryStats 	"account 0" 	0.15041626384662
scalar Forest.networkOne[8].batteryStats 	account 	1
scalar Forest.networkOne[8].batteryStats 	"energy (mWs)" 	147536.61398384
scalar Forest.networkOne[8].batteryStats 	"time (s)" 	2615.8974110609
scalar Forest.networkOne[8].batteryStats 	"account 1" 	147536.61398384
scalar Forest.networkOne[8].batteryStats 	account 	2
scalar Forest.networkOne[8].batteryStats 	"energy (mWs)" 	254.42530559997
scalar Forest.networkOne[8].batteryStats 	"time (s)" 	4.874048
scalar Forest.networkOne[8].batteryStats 	"account 2" 	254.42530559997
scalar Forest.networkOne[8].batteryStats 	account 	3
scalar Forest.networkOne[8].batteryStats 	"energy (mWs)" 	94.259515199991
scalar Forest.networkOne[8].batteryStats 	"time (s)" 	1.671268
scalar Forest.networkOne[8].batteryStats 	"account 3" 	94.259515199991
scalar Forest.networkOne[8].batteryStats 	account 	4
scalar Forest.networkOne[8].batteryStats 	"energy (mWs)" 	0
scalar Forest.networkOne[8].batteryStats 	"time (s)" 	0
scalar Forest.networkOne[8].batteryStats 	"account 4" 	0
scalar Forest.networkOne[8].batteryStats 	TemperatureSensorLayer 	1
scalar Forest.networkOne[8].batteryStats 	"device total (mWs)" 	334.32900222358
scalar Forest.networkOne[8].batteryStats 	account 	0
scalar Forest.networkOne[8].batteryStats 	"energy (mWs)" 	334.32900222358
scalar Forest.networkOne[8].batteryStats 	"time (s)" 	5010.0024706581
scalar Forest.networkOne[8].batteryStats 	"account 0" 	334.32900222358
scalar Forest.networkOne[8].applSensor 	"activity duration" 	-1
attr unit  s
scalar Forest.networkOne[8].applSensor 	firstPacketGeneration 	-1
attr unit  s
scalar Forest.networkOne[8].applSensor 	lastPacketReception 	-2
attr unit  s
scalar Forest.networkOne[8].applSensor 	nbPacketsSent 	2500
scalar Forest.networkOne[8].applSensor 	nbPacketsReceived 	0
statistic Forest.networkOne[8].applSensor 	latency
field count 0
field mean 0
field stddev -nan
field sum 0
field sqrsum 0
field min 0
field max 0
scalar Forest.networkOne[9].nic.mac 	nbTxFrames 	4246
scalar Forest.networkOne[9].nic.mac 	nbRxFrames 	14392
scalar Forest.networkOne[9].nic.mac 	nbDroppedFrames 	756
scalar Forest.networkOne[9].nic.mac 	nbMissedAcks 	0
scalar Forest.networkOne[9].nic.mac 	nbRecvdAcks 	0
scalar Forest.networkOne[9].nic.mac 	nbTxAcks 	0
scalar Forest.networkOne[9].nic.mac 	nbDuplicates 	0
scalar Forest.networkOne[9].nic.mac 	meanBackoff 	0.0026679518072289
scalar Forest.networkOne[9].nic.mac 	nbBackoffs 	10956
scalar Forest.networkOne[9].nic.mac 	backoffDurations 	29.230079999999
scalar Forest.networkOne[9].nic.phy 	nbFramesWithInterference 	17326
scalar Forest.networkOne[9].nic.phy 	nbFramesWithoutInterference 	110221
scalar Forest.networkOne[9].nic.phy 	nbFramesWithInterferencePartial 	2289
scalar Forest.networkOne[9].nic.phy 	nbFramesWithoutInterferencePartial 	4
scalar Forest.networkOne[9].nic.phy 	nbFramesWithInterferenceDropped 	2125
scalar Forest.networkOne[9].nic.phy 	nbFramesWithoutInterferenceDropped 	70
scalar Forest.networkOne[9].netwl 	nbDataPacketsForwarded 	2502
scalar Forest.networkOne[9].netwl 	nbDataPacketsReceived 	0
scalar Forest.networkOne[9].netwl 	nbDataPacketsSent 	2500
scalar Forest.networkOne[9].netwl 	nbDuplicatedFloodsReceived 	22088
scalar Forest.networkOne[9].netwl 	nbFloodsSent 	0
scalar Forest.networkOne[9].netwl 	nbPureUnicastSent 	2500
scalar Forest.networkOne[9].netwl 	nbRouteFloodsSent 	0
scalar Forest.networkOne[9].netwl 	nbRouteFloodsReceived 	3
scalar Forest.networkOne[9].netwl 	nbUnicastFloodForwarded 	2499
scalar Forest.networkOne[9].netwl 	nbPureUnicastForwarded 	0
scalar Forest.networkOne[9].netwl 	nbGetRouteFailures 	0
scalar Forest.networkOne[9].netwl 	nbRoutesRecorded 	1
scalar Forest.networkOne[9].netwl 	meanNbHops 	-nan
scalar Forest.networkOne[9].tranl 	nbAggrPktReceived 	0
scalar Forest.networkOne[9].tranl 	"nbAggrPktSentDown " 	0
scalar Forest.networkOne[9].batteryStats 	nominal 	10800000
attr unit  mW-s
scalar Forest.networkOne[9].batteryStats 	total 	153451.94319675
attr unit  mW-s
scalar Forest.networkOne[9].batteryStats 	lifetime 	-1
attr unit  s
scalar Forest.networkOne[9].batteryStats 	"Mean power consumption" 	30.629115273989
attr unit  mW
scalar Forest.networkOne[9].batteryStats 	"num devices" 	2
scalar Forest.networkOne[9].batteryStats 	"physical layer" 	0
scalar Forest.networkOne[9].batteryStats 	"device total (mWs)" 	153117.61418983
scalar Forest.networkOne[9].batteryStats 	account 	0
scalar Forest.networkOne[9].batteryStats 	"energy (mWs)" 	0.14457237469954
scalar Forest.networkOne[9].batteryStats 	"time (s)" 	2294.7995984054
scalar Forest.networkOne[9].batteryStats 	"account 0" 	0.14457237469954
scalar Forest.networkOne[9].batteryStats 	account 	1
scalar Forest.networkOne[9].batteryStats 	"energy (mWs)" 	152777.27768625
scalar Forest.networkOne[9].batteryStats 	"time (s)" 	2708.8169802527
scalar Forest.networkOne[9].batteryStats 	"account 1" 	152777.27768625
scalar Forest.networkOne[9].batteryStats 	account 	2
scalar Forest.networkOne[9].batteryStats 	"energy (mWs)" 	248.22812159997
scalar Forest.networkOne[9].batteryStats 	"time (s)" 	4.755328
scalar Forest.networkOne[9].batteryStats 	"account 2" 	248.22812159997
scalar Forest.networkOne[9].batteryStats 	account 	3
scalar Forest.networkOne[9].batteryStats 	"energy (mWs)" 	91.963809599992
scalar Forest.networkOne[9].batteryStats 	"time (s)" 	1.630564
scalar Forest.networkOne[9].batteryStats 	"account 3" 	91.963809599992
scalar Forest.networkOne[9].batteryStats 	account 	4
scalar Forest.networkOne[9].batteryStats 	"energy (mWs)" 	0
scalar Forest.networkOne[9].batteryStats 	"time (s)" 	0
scalar Forest.networkOne[9].batteryStats 	"account 4" 	0
scalar Forest.networkOne[9].batteryStats 	TemperatureSensorLayer 	1
scalar Forest.networkOne[9].batteryStats 	"device total (mWs)" 	334.32900222357
scalar Forest.networkOne[9].batteryStats 	account 	0
scalar Forest.networkOne[9].batteryStats 	"energy (mWs)" 	334.32900222357
scalar Forest.networkOne[9].batteryStats 	"time (s)" 	5010.0024706581
scalar Forest.networkOne[9].batteryStats 	"account 0" 	334.32900222357
scalar Forest.networkOne[9].applSensor 	"activity duration" 	-1
attr unit  s
scalar Forest.networkOne[9].applSensor 	firstPacketGeneration 	-1
attr unit  s
scalar Forest.networkOne[9].applSensor 	lastPacketReception 	-2
attr unit  s
scalar Forest.networkOne[9].applSensor 	nbPacketsSent 	2500
scalar Forest.networkOne[9].applSensor 	nbPacketsReceived 	0
statistic Forest.networkOne[9].applSensor 	latency
field count 0
field mean 0
field stddev -nan
field sum 0
field sqrsum 0
field min 0
field max 0
scalar Forest.networkOne[10].nic.mac 	nbTxFrames 	6265
scalar Forest.networkOne[10].nic.mac 	nbRxFrames 	16305
scalar Forest.networkOne[10].nic.mac 	nbDroppedFrames 	768
scalar Forest.networkOne[10].nic.mac 	nbMissedAcks 	0
scalar Forest.networkOne[10].nic.mac 	nbRecvdAcks 	0
scalar Forest.networkOne[10].nic.mac 	nbTxAcks 	0
scalar Forest.networkOne[10].nic.mac 	nbDuplicates 	0
scalar Forest.networkOne[10].nic.mac 	meanBackoff 	0.0024798354285714
scalar Forest.networkOne[10].nic.mac 	nbBackoffs 	13125
scalar Forest.networkOne[10].nic.mac 	backoffDurations 	32.547839999999
scalar Forest.networkOne[10].nic.phy 	nbFramesWithInterference 	19491
scalar Forest.networkOne[10].nic.phy 	nbFramesWithoutInterference 	142246
scalar Forest.networkOne[10].nic.phy 	nbFramesWithInterferencePartial 	3166
scalar Forest.networkOne[10].nic.phy 	nbFramesWithoutInterferencePartial 	1
scalar Forest.networkOne[10].nic.phy 	nbFramesWithInterferenceDropped 	2480
scalar Forest.networkOne[10].nic.phy 	nbFramesWithoutInterferenceDropped 	80
scalar Forest.networkOne[10].netwl 	nbDataPacketsForwarded 	2504
scalar Forest.networkOne[10].netwl 	nbDataPacketsReceived 	0
scalar Forest.networkOne[10].netwl 	nbDataPacketsSent 	4529
scalar Forest.networkOne[10].netwl 	nbDuplicatedFloodsReceived 	25169
scalar Forest.networkOne[10].netwl 	nbFloodsSent 	0
scalar Forest.networkOne[10].netwl 	nbPureUnicastSent 	4529
scalar Forest.networkOne[10].netwl 	nbRouteFloodsSent 	0
scalar Forest.networkOne[10].netwl 	nbRouteFloodsReceived 	5
scalar Forest.networkOne[10].netwl 	nbUnicastFloodForwarded 	2499
scalar Forest.networkOne[10].netwl 	nbPureUnicastForwarded 	0
scalar Forest.networkOne[10].netwl 	nbGetRouteFailures 	0
scalar Forest.networkOne[10].netwl 	nbRoutesRecorded 	1
scalar Forest.networkOne[10].netwl 	meanNbHops 	-nan
scalar Forest.networkOne[10].tranl 	nbAggrPktReceived 	0
scalar Forest.networkOne[10].tranl 	"nbAggrPktSentDown " 	0
scalar Forest.networkOne[10].batteryStats 	nominal 	10800000
attr unit  mW-s
scalar Forest.networkOne[10].batteryStats 	total 	283136.68078083
attr unit  mW-s
scalar Forest.networkOne[10].batteryStats 	lifetime 	-1
attr unit  s
scalar Forest.networkOne[10].batteryStats 	"Mean power consumption" 	56.514279671332
attr unit  mW
scalar Forest.networkOne[10].batteryStats 	"num devices" 	2
scalar Forest.networkOne[10].batteryStats 	"physical layer" 	0
scalar Forest.networkOne[10].batteryStats 	"device total (mWs)" 	282534.66986025
scalar Forest.networkOne[10].batteryStats 	account 	0
scalar Forest.networkOne[10].batteryStats 	"energy (mWs)" 	0
scalar Forest.networkOne[10].batteryStats 	"time (s)" 	0
scalar Forest.networkOne[10].batteryStats 	"account 0" 	0
scalar Forest.networkOne[10].batteryStats 	account 	1
scalar Forest.networkOne[10].batteryStats 	"energy (mWs)" 	282032.72139945
scalar Forest.networkOne[10].batteryStats 	"time (s)" 	5000.5801666581
scalar Forest.networkOne[10].batteryStats 	"account 1" 	282032.72139945
scalar Forest.networkOne[10].batteryStats 	account 	2
scalar Forest.networkOne[10].batteryStats 	"energy (mWs)" 	366.2635968
scalar Forest.networkOne[10].batteryStats 	"time (s)" 	7.016544
scalar Forest.networkOne[10].batteryStats 	"account 2" 	366.2635968
scalar Forest.networkOne[10].batteryStats 	account 	3
scalar Forest.networkOne[10].batteryStats 	"energy (mWs)" 	135.684864
scalar Forest.networkOne[10].batteryStats 	"time (s)" 	2.40576
scalar Forest.networkOne[10].batteryStats 	"account 3" 	135.684864
scalar Forest.networkOne[10].batteryStats 	account 	4
scalar Forest.networkOne[10].batteryStats 	"energy (mWs)" 	0
scalar Forest.networkOne[10].batteryStats 	"time (s)" 	0
scalar Forest.networkOne[10].batteryStats 	"account 4" 	0
scalar Forest.networkOne[10].batteryStats 	TemperatureSensorLayer 	1
scalar Forest.networkOne[10].batteryStats 	"device total (mWs)" 	602.01091422364
scalar Forest.networkOne[10].batteryStats 	account 	0
scalar Forest.networkOne[10].batteryStats 	"energy (mWs)" 	602.01091422364
scalar Forest.networkOne[10].batteryStats 	"time (s)" 	5010.0024706581
scalar Forest.networkOne[10].batteryStats 	"account 0" 	602.01091422364
scalar Forest.networkOne[10].applSensor 	"activity duration" 	-1
attr unit  s
scalar Forest.networkOne[10].applSensor 	firstPacketGeneration 	-1
attr unit  s
scalar Forest.networkOne[10].applSensor 	lastPacketReception 	-2
attr unit  s
scalar Forest.networkOne[10].applSensor 	nbPacketsSent 	4529
scalar Forest.networkOne[10].applSensor 	nbPacketsReceived 	0
statistic Forest.networkOne[10].applSensor 	latency
field count 0
field mean 0
field stddev -nan
field sum 0
field sqrsum 0
field min 0
field max 0
scalar Forest.networkOne[11].nic.mac 	nbTxFrames 	4273
scalar Forest.networkOne[11].nic.mac 	nbRxFrames 	17866
scalar Forest.networkOne[11].nic.mac 	nbDroppedFrames 	729
scalar Forest.networkOne[11].nic.mac 	nbMissedAcks 	0
scalar Forest.networkOne[11].nic.mac 	nbRecvdAcks 	0
scalar Forest.networkOne[11].nic.mac 	nbTxAcks 	0
scalar Forest.networkOne[11].nic.mac 	nbDuplicates 	0
scalar Forest.networkOne[11].nic.mac 	meanBackoff 	0.0026947460723419
scalar Forest.networkOne[11].nic.mac 	nbBackoffs 	10948
scalar Forest.networkOne[11].nic.mac 	backoffDurations 	29.502079999999
scalar Forest.networkOne[11].nic.phy 	nbFramesWithInterference 	20604
scalar Forest.networkOne[11].nic.phy 	nbFramesWithoutInterference 	155805
scalar Forest.networkOne[11].nic.phy 	nbFramesWithInterferencePartial 	4257
scalar Forest.networkOne[11].nic.phy 	nbFramesWithoutInterferencePartial 	5
scalar Forest.networkOne[11].nic.phy 	nbFramesWithInterferenceDropped 	2967
scalar Forest.networkOne[11].nic.phy 	nbFramesWithoutInterferenceDropped 	59
scalar Forest.networkOne[11].netwl 	nbDataPacketsForwarded 	2502
scalar Forest.networkOne[11].netwl 	nbDataPacketsReceived 	0
scalar Forest.networkOne[11].netwl 	nbDataPacketsSent 	2500
scalar Forest.networkOne[11].netwl 	nbDuplicatedFloodsReceived 	27046
scalar Forest.networkOne[11].netwl 	nbFloodsSent 	0
scalar Forest.networkOne[11].netwl 	nbPureUnicastSent 	2500
scalar Forest.networkOne[11].netwl 	nbRouteFloodsSent 	0
scalar Forest.networkOne[11].netwl 	nbRouteFloodsReceived 	3
scalar Forest.networkOne[11].netwl 	nbUnicastFloodForwarded 	2499
scalar Forest.networkOne[11].netwl 	nbPureUnicastForwarded 	0
scalar Forest.networkOne[11].netwl 	nbGetRouteFailures 	0
scalar Forest.networkOne[11].netwl 	nbRoutesRecorded 	1
scalar Forest.networkOne[11].netwl 	meanNbHops 	-nan
scalar Forest.networkOne[11].tranl 	nbAggrPktReceived 	0
scalar Forest.networkOne[11].tranl 	"nbAggrPktSentDown " 	0
scalar Forest.networkOne[11].batteryStats 	nominal 	10800000
attr unit  mW-s
scalar Forest.networkOne[11].batteryStats 	total 	156150.97519765
attr unit  mW-s
scalar Forest.networkOne[11].batteryStats 	lifetime 	-1
attr unit  s
scalar Forest.networkOne[11].batteryStats 	"Mean power consumption" 	31.167843950611
attr unit  mW
scalar Forest.networkOne[11].batteryStats 	"num devices" 	2
scalar Forest.networkOne[11].batteryStats 	"physical layer" 	0
scalar Forest.networkOne[11].batteryStats 	"device total (mWs)" 	155816.64619058
scalar Forest.networkOne[11].batteryStats 	account 	0
scalar Forest.networkOne[11].batteryStats 	"energy (mWs)" 	0.14155735329
scalar Forest.networkOne[11].batteryStats 	"time (s)" 	2246.9421157143
scalar Forest.networkOne[11].batteryStats 	"account 0" 	0.14155735329
scalar Forest.networkOne[11].batteryStats 	account 	1
scalar Forest.networkOne[11].batteryStats 	"energy (mWs)" 	155474.14941883
scalar Forest.networkOne[11].batteryStats 	"time (s)" 	2756.6338549438
scalar Forest.networkOne[11].batteryStats 	"account 1" 	155474.14941883
scalar Forest.networkOne[11].batteryStats 	account 	2
scalar Forest.networkOne[11].batteryStats 	"energy (mWs)" 	249.80664959997
scalar Forest.networkOne[11].batteryStats 	"time (s)" 	4.785568
scalar Forest.networkOne[11].batteryStats 	"account 2" 	249.80664959997
scalar Forest.networkOne[11].batteryStats 	account 	3
scalar Forest.networkOne[11].batteryStats 	"energy (mWs)" 	92.548564799991
scalar Forest.networkOne[11].batteryStats 	"time (s)" 	1.640932
scalar Forest.networkOne[11].batteryStats 	"account 3" 	92.548564799991
scalar Forest.networkOne[11].batteryStats 	account 	4
scalar Forest.networkOne[11].batteryStats 	"energy (mWs)" 	0
[...]
scalar Forest.networkTwo[76].batteryStats 	"account 3" 	95.862177599991
scalar Forest.networkTwo[76].batteryStats 	account 	4
scalar Forest.networkTwo[76].batteryStats 	"energy (mWs)" 	0
scalar Forest.networkTwo[76].batteryStats 	"time (s)" 	0
scalar Forest.networkTwo[76].batteryStats 	"account 4" 	0
scalar Forest.networkTwo[76].batteryStats 	TemperatureSensorLayer 	1
scalar Forest.networkTwo[76].batteryStats 	"device total (mWs)" 	334.32900222357
scalar Forest.networkTwo[76].batteryStats 	account 	0
scalar Forest.networkTwo[76].batteryStats 	"energy (mWs)" 	334.32900222357
scalar Forest.networkTwo[76].batteryStats 	"time (s)" 	5010.0024706581
scalar Forest.networkTwo[76].batteryStats 	"account 0" 	334.32900222357
scalar Forest.networkTwo[76].applSensor 	"activity duration" 	-1
attr unit  s
scalar Forest.networkTwo[76].applSensor 	firstPacketGeneration 	-1
attr unit  s
scalar Forest.networkTwo[76].applSensor 	lastPacketReception 	-2
attr unit  s
scalar Forest.networkTwo[76].applSensor 	nbPacketsSent 	2500
scalar Forest.networkTwo[76].applSensor 	nbPacketsReceived 	0
statistic Forest.networkTwo[76].applSensor 	latency
field count 0
field mean 0
field stddev -nan
field sum 0
field sqrsum 0
field min 0
field max 0
scalar Forest.networkTwo[77].nic.mac 	nbTxFrames 	4432
scalar Forest.networkTwo[77].nic.mac 	nbRxFrames 	15419
scalar Forest.networkTwo[77].nic.mac 	nbDroppedFrames 	570
scalar Forest.networkTwo[77].nic.mac 	nbMissedAcks 	0
scalar Forest.networkTwo[77].nic.mac 	nbRecvdAcks 	0
scalar Forest.networkTwo[77].nic.mac 	nbTxAcks 	0
scalar Forest.networkTwo[77].nic.mac 	nbDuplicates 	0
scalar Forest.networkTwo[77].nic.mac 	meanBackoff 	0.0026652440492729
scalar Forest.networkTwo[77].nic.mac 	nbBackoffs 	10797
scalar Forest.networkTwo[77].nic.mac 	backoffDurations 	28.776639999999
scalar Forest.networkTwo[77].nic.phy 	nbFramesWithInterference 	12632
scalar Forest.networkTwo[77].nic.phy 	nbFramesWithoutInterference 	103953
scalar Forest.networkTwo[77].nic.phy 	nbFramesWithInterferencePartial 	5313
scalar Forest.networkTwo[77].nic.phy 	nbFramesWithoutInterferencePartial 	9
scalar Forest.networkTwo[77].nic.phy 	nbFramesWithInterferenceDropped 	2858
scalar Forest.networkTwo[77].nic.phy 	nbFramesWithoutInterferenceDropped 	92
scalar Forest.networkTwo[77].netwl 	nbDataPacketsForwarded 	2502
scalar Forest.networkTwo[77].netwl 	nbDataPacketsReceived 	0
scalar Forest.networkTwo[77].netwl 	nbDataPacketsSent 	2500
scalar Forest.networkTwo[77].netwl 	nbDuplicatedFloodsReceived 	24131
scalar Forest.networkTwo[77].netwl 	nbFloodsSent 	0
scalar Forest.networkTwo[77].netwl 	nbPureUnicastSent 	2500
scalar Forest.networkTwo[77].netwl 	nbRouteFloodsSent 	0
scalar Forest.networkTwo[77].netwl 	nbRouteFloodsReceived 	3
scalar Forest.networkTwo[77].netwl 	nbUnicastFloodForwarded 	2499
scalar Forest.networkTwo[77].netwl 	nbPureUnicastForwarded 	0
scalar Forest.networkTwo[77].netwl 	nbGetRouteFailures 	0
scalar Forest.networkTwo[77].netwl 	nbRoutesRecorded 	1
scalar Forest.networkTwo[77].netwl 	meanNbHops 	-nan
scalar Forest.networkTwo[77].tranl 	nbAggrPktReceived 	0
scalar Forest.networkTwo[77].tranl 	"nbAggrPktSentDown " 	0
scalar Forest.networkTwo[77].batteryStats 	nominal 	10800000
attr unit  mW-s
scalar Forest.networkTwo[77].batteryStats 	total 	157404.45151478
attr unit  mW-s
scalar Forest.networkTwo[77].batteryStats 	lifetime 	-1
attr unit  s
scalar Forest.networkTwo[77].batteryStats 	"Mean power consumption" 	31.418038700908
attr unit  mW
scalar Forest.networkTwo[77].batteryStats 	"num devices" 	2
scalar Forest.networkTwo[77].batteryStats 	"physical layer" 	0
scalar Forest.networkTwo[77].batteryStats 	"device total (mWs)" 	157070.12250761
scalar Forest.networkTwo[77].batteryStats 	account 	0
scalar Forest.networkTwo[77].batteryStats 	"energy (mWs)" 	0.1401563565488
scalar Forest.networkTwo[77].batteryStats 	"time (s)" 	2224.7040722032
scalar Forest.networkTwo[77].batteryStats 	"account 0" 	0.1401563565488
scalar Forest.networkTwo[77].batteryStats 	account 	1
scalar Forest.networkTwo[77].batteryStats 	"energy (mWs)" 	156714.88780245
scalar Forest.networkTwo[77].batteryStats 	"time (s)" 	2778.6327624549
scalar Forest.networkTwo[77].batteryStats 	"account 1" 	156714.88780245
scalar Forest.networkTwo[77].batteryStats 	account 	2
scalar Forest.networkTwo[77].batteryStats 	"energy (mWs)" 	259.10242559997
scalar Forest.networkTwo[77].batteryStats 	"time (s)" 	4.963648
scalar Forest.networkTwo[77].batteryStats 	"account 2" 	259.10242559997
scalar Forest.networkTwo[77].batteryStats 	account 	3
scalar Forest.networkTwo[77].batteryStats 	"energy (mWs)" 	95.992123199991
scalar Forest.networkTwo[77].batteryStats 	"time (s)" 	1.701988
scalar Forest.networkTwo[77].batteryStats 	"account 3" 	95.992123199991
scalar Forest.networkTwo[77].batteryStats 	account 	4
scalar Forest.networkTwo[77].batteryStats 	"energy (mWs)" 	0
scalar Forest.networkTwo[77].batteryStats 	"time (s)" 	0
scalar Forest.networkTwo[77].batteryStats 	"account 4" 	0
scalar Forest.networkTwo[77].batteryStats 	TemperatureSensorLayer 	1
scalar Forest.networkTwo[77].batteryStats 	"device total (mWs)" 	334.32900222357
scalar Forest.networkTwo[77].batteryStats 	account 	0
scalar Forest.networkTwo[77].batteryStats 	"energy (mWs)" 	334.32900222357
scalar Forest.networkTwo[77].batteryStats 	"time (s)" 	5010.0024706581
scalar Forest.networkTwo[77].batteryStats 	"account 0" 	334.32900222357
scalar Forest.networkTwo[77].applSensor 	"activity duration" 	-1
attr unit  s
scalar Forest.networkTwo[77].applSensor 	firstPacketGeneration 	-1
attr unit  s
scalar Forest.networkTwo[77].applSensor 	lastPacketReception 	-2
attr unit  s
scalar Forest.networkTwo[77].applSensor 	nbPacketsSent 	2500
scalar Forest.networkTwo[77].applSensor 	nbPacketsReceived 	0
statistic Forest.networkTwo[77].applSensor 	latency
field count 0
field mean 0
field stddev -nan
field sum 0
field sqrsum 0
field min 0
field max 0
scalar Forest.networkTwo[78].nic.mac 	nbTxFrames 	4462
scalar Forest.networkTwo[78].nic.mac 	nbRxFrames 	14878
scalar Forest.networkTwo[78].nic.mac 	nbDroppedFrames 	540
scalar Forest.networkTwo[78].nic.mac 	nbMissedAcks 	0
scalar Forest.networkTwo[78].nic.mac 	nbRecvdAcks 	0
scalar Forest.networkTwo[78].nic.mac 	nbTxAcks 	0
scalar Forest.networkTwo[78].nic.mac 	nbDuplicates 	0
scalar Forest.networkTwo[78].nic.mac 	meanBackoff 	0.0026549479940564
scalar Forest.networkTwo[78].nic.mac 	nbBackoffs 	10768
scalar Forest.networkTwo[78].nic.mac 	backoffDurations 	28.588479999999
scalar Forest.networkTwo[78].nic.phy 	nbFramesWithInterference 	11850
scalar Forest.networkTwo[78].nic.phy 	nbFramesWithoutInterference 	93219
scalar Forest.networkTwo[78].nic.phy 	nbFramesWithInterferencePartial 	4881
scalar Forest.networkTwo[78].nic.phy 	nbFramesWithoutInterferencePartial 	9
scalar Forest.networkTwo[78].nic.phy 	nbFramesWithInterferenceDropped 	2484
scalar Forest.networkTwo[78].nic.phy 	nbFramesWithoutInterferenceDropped 	87
scalar Forest.networkTwo[78].netwl 	nbDataPacketsForwarded 	2502
scalar Forest.networkTwo[78].netwl 	nbDataPacketsReceived 	0
scalar Forest.networkTwo[78].netwl 	nbDataPacketsSent 	2500
scalar Forest.networkTwo[78].netwl 	nbDuplicatedFloodsReceived 	23288
scalar Forest.networkTwo[78].netwl 	nbFloodsSent 	0
scalar Forest.networkTwo[78].netwl 	nbPureUnicastSent 	2500
scalar Forest.networkTwo[78].netwl 	nbRouteFloodsSent 	0
scalar Forest.networkTwo[78].netwl 	nbRouteFloodsReceived 	3
scalar Forest.networkTwo[78].netwl 	nbUnicastFloodForwarded 	2499
scalar Forest.networkTwo[78].netwl 	nbPureUnicastForwarded 	0
scalar Forest.networkTwo[78].netwl 	nbGetRouteFailures 	0
scalar Forest.networkTwo[78].netwl 	nbRoutesRecorded 	1
scalar Forest.networkTwo[78].netwl 	meanNbHops 	-nan
scalar Forest.networkTwo[78].tranl 	nbAggrPktReceived 	0
scalar Forest.networkTwo[78].tranl 	"nbAggrPktSentDown " 	0
scalar Forest.networkTwo[78].batteryStats 	nominal 	10800000
attr unit  mW-s
scalar Forest.networkTwo[78].batteryStats 	total 	156176.86310033
attr unit  mW-s
scalar Forest.networkTwo[78].batteryStats 	lifetime 	-1
attr unit  s
scalar Forest.networkTwo[78].batteryStats 	"Mean power consumption" 	31.173011194107
attr unit  mW
scalar Forest.networkTwo[78].batteryStats 	"num devices" 	2
scalar Forest.networkTwo[78].batteryStats 	"physical layer" 	0
scalar Forest.networkTwo[78].batteryStats 	"device total (mWs)" 	155842.53409307
scalar Forest.networkTwo[78].batteryStats 	account 	0
scalar Forest.networkTwo[78].batteryStats 	"energy (mWs)" 	0.14152744222373
scalar Forest.networkTwo[78].batteryStats 	"time (s)" 	2246.4673368846
scalar Forest.networkTwo[78].batteryStats 	"account 0" 	0.14152744222373
scalar Forest.networkTwo[78].batteryStats 	account 	1
scalar Forest.networkTwo[78].batteryStats 	"energy (mWs)" 	155484.88768722
scalar Forest.networkTwo[78].batteryStats 	"time (s)" 	2756.8242497735
scalar Forest.networkTwo[78].batteryStats 	"account 1" 	155484.88768722
scalar Forest.networkTwo[78].batteryStats 	account 	2
scalar Forest.networkTwo[78].batteryStats 	"energy (mWs)" 	260.86302719997
scalar Forest.networkTwo[78].batteryStats 	"time (s)" 	4.997376
scalar Forest.networkTwo[78].batteryStats 	"account 2" 	260.86302719997
scalar Forest.networkTwo[78].batteryStats 	account 	3
scalar Forest.networkTwo[78].batteryStats 	"energy (mWs)" 	96.641851199991
scalar Forest.networkTwo[78].batteryStats 	"time (s)" 	1.713508
scalar Forest.networkTwo[78].batteryStats 	"account 3" 	96.641851199991
scalar Forest.networkTwo[78].batteryStats 	account 	4
scalar Forest.networkTwo[78].batteryStats 	"energy (mWs)" 	0
scalar Forest.networkTwo[78].batteryStats 	"time (s)" 	0
scalar Forest.networkTwo[78].batteryStats 	"account 4" 	0
scalar Forest.networkTwo[78].batteryStats 	TemperatureSensorLayer 	1
scalar Forest.networkTwo[78].batteryStats 	"device total (mWs)" 	334.32900222357
scalar Forest.networkTwo[78].batteryStats 	account 	0
scalar Forest.networkTwo[78].batteryStats 	"energy (mWs)" 	334.32900222357
scalar Forest.networkTwo[78].batteryStats 	"time (s)" 	5010.0024706581
scalar Forest.networkTwo[78].batteryStats 	"account 0" 	334.32900222357
scalar Forest.networkTwo[78].applSensor 	"activity duration" 	-1
attr unit  s
scalar Forest.networkTwo[78].applSensor 	firstPacketGeneration 	-1
attr unit  s
scalar Forest.networkTwo[78].applSensor 	lastPacketReception 	-2
attr unit  s
scalar Forest.networkTwo[78].applSensor 	nbPacketsSent 	2500
scalar Forest.networkTwo[78].applSensor 	nbPacketsReceived 	0
statistic Forest.networkTwo[78].applSensor 	latency
field count 0
field mean 0
field stddev -nan
field sum 0
field sqrsum 0
field min 0
field max 0
scalar Forest.networkTwo[79].nic.mac 	nbTxFrames 	4480
scalar Forest.networkTwo[79].nic.mac 	nbRxFrames 	13704
scalar Forest.networkTwo[79].nic.mac 	nbDroppedFrames 	522
scalar Forest.networkTwo[79].nic.mac 	nbMissedAcks 	0
scalar Forest.networkTwo[79].nic.mac 	nbRecvdAcks 	0
scalar Forest.networkTwo[79].nic.mac 	nbTxAcks 	0
scalar Forest.networkTwo[79].nic.mac 	nbDuplicates 	0
scalar Forest.networkTwo[79].nic.mac 	meanBackoff 	0.0026485049339042
scalar Forest.networkTwo[79].nic.mac 	nbBackoffs 	10742
scalar Forest.networkTwo[79].nic.mac 	backoffDurations 	28.450239999999
scalar Forest.networkTwo[79].nic.phy 	nbFramesWithInterference 	11015
scalar Forest.networkTwo[79].nic.phy 	nbFramesWithoutInterference 	78587
scalar Forest.networkTwo[79].nic.phy 	nbFramesWithInterferencePartial 	4010
scalar Forest.networkTwo[79].nic.phy 	nbFramesWithoutInterferencePartial 	7
scalar Forest.networkTwo[79].nic.phy 	nbFramesWithInterferenceDropped 	2026
scalar Forest.networkTwo[79].nic.phy 	nbFramesWithoutInterferenceDropped 	114
scalar Forest.networkTwo[79].netwl 	nbDataPacketsForwarded 	2502
scalar Forest.networkTwo[79].netwl 	nbDataPacketsReceived 	0
scalar Forest.networkTwo[79].netwl 	nbDataPacketsSent 	2500
scalar Forest.networkTwo[79].netwl 	nbDuplicatedFloodsReceived 	21498
scalar Forest.networkTwo[79].netwl 	nbFloodsSent 	0
scalar Forest.networkTwo[79].netwl 	nbPureUnicastSent 	2500
scalar Forest.networkTwo[79].netwl 	nbRouteFloodsSent 	0
scalar Forest.networkTwo[79].netwl 	nbRouteFloodsReceived 	3
scalar Forest.networkTwo[79].netwl 	nbUnicastFloodForwarded 	2499
scalar Forest.networkTwo[79].netwl 	nbPureUnicastForwarded 	0
scalar Forest.networkTwo[79].netwl 	nbGetRouteFailures 	0
scalar Forest.networkTwo[79].netwl 	nbRoutesRecorded 	1
scalar Forest.networkTwo[79].netwl 	meanNbHops 	-nan
scalar Forest.networkTwo[79].tranl 	nbAggrPktReceived 	0
scalar Forest.networkTwo[79].tranl 	"nbAggrPktSentDown " 	0
scalar Forest.networkTwo[79].batteryStats 	nominal 	10800000
attr unit  mW-s
scalar Forest.networkTwo[79].batteryStats 	total 	152905.47574513
attr unit  mW-s
scalar Forest.networkTwo[79].batteryStats 	lifetime 	-1
attr unit  s
scalar Forest.networkTwo[79].batteryStats 	"Mean power consumption" 	30.520039988133
attr unit  mW
scalar Forest.networkTwo[79].batteryStats 	"num devices" 	2
scalar Forest.networkTwo[79].batteryStats 	"physical layer" 	0
scalar Forest.networkTwo[79].batteryStats 	"device total (mWs)" 	152571.14673797
scalar Forest.networkTwo[79].batteryStats 	account 	0
scalar Forest.networkTwo[79].batteryStats 	"energy (mWs)" 	0.14518156130491
scalar Forest.networkTwo[79].batteryStats 	"time (s)" 	2304.4692270621
scalar Forest.networkTwo[79].batteryStats 	"account 0" 	0.14518156130491
scalar Forest.networkTwo[79].batteryStats 	account 	1
scalar Forest.networkTwo[79].batteryStats 	"energy (mWs)" 	152212.05783001
scalar Forest.networkTwo[79].batteryStats 	"time (s)" 	2698.7953515959
scalar Forest.networkTwo[79].batteryStats 	"account 1" 	152212.05783001
scalar Forest.networkTwo[79].batteryStats 	account 	2
scalar Forest.networkTwo[79].batteryStats 	"energy (mWs)" 	261.91203839997
scalar Forest.networkTwo[79].batteryStats 	"time (s)" 	5.017472
scalar Forest.networkTwo[79].batteryStats 	"account 2" 	261.91203839997
scalar Forest.networkTwo[79].batteryStats 	account 	3
scalar Forest.networkTwo[79].batteryStats 	"energy (mWs)" 	97.031687999991
scalar Forest.networkTwo[79].batteryStats 	"time (s)" 	1.72042
scalar Forest.networkTwo[79].batteryStats 	"account 3" 	97.031687999991
scalar Forest.networkTwo[79].batteryStats 	account 	4
scalar Forest.networkTwo[79].batteryStats 	"energy (mWs)" 	0
scalar Forest.networkTwo[79].batteryStats 	"time (s)" 	0
scalar Forest.networkTwo[79].batteryStats 	"account 4" 	0
scalar Forest.networkTwo[79].batteryStats 	TemperatureSensorLayer 	1
scalar Forest.networkTwo[79].batteryStats 	"device total (mWs)" 	334.32900222357
scalar Forest.networkTwo[79].batteryStats 	account 	0
scalar Forest.networkTwo[79].batteryStats 	"energy (mWs)" 	334.32900222357
scalar Forest.networkTwo[79].batteryStats 	"time (s)" 	5010.0024706581
scalar Forest.networkTwo[79].batteryStats 	"account 0" 	334.32900222357
scalar Forest.networkTwo[79].applSensor 	"activity duration" 	-1
attr unit  s
scalar Forest.networkTwo[79].applSensor 	firstPacketGeneration 	-1
attr unit  s
scalar Forest.networkTwo[79].applSensor 	lastPacketReception 	-2
attr unit  s
scalar Forest.networkTwo[79].applSensor 	nbPacketsSent 	2500
scalar Forest.networkTwo[79].applSensor 	nbPacketsReceived 	0
statistic Forest.networkTwo[79].applSensor 	latency
field count 0
field mean 0
field stddev -nan
field sum 0
field sqrsum 0
field min 0
field max 0
scalar Forest.networkTwo[80].nic.mac 	nbTxFrames 	4507
scalar Forest.networkTwo[80].nic.mac 	nbRxFrames 	12186
scalar Forest.networkTwo[80].nic.mac 	nbDroppedFrames 	495
scalar Forest.networkTwo[80].nic.mac 	nbMissedAcks 	0
scalar Forest.networkTwo[80].nic.mac 	nbRecvdAcks 	0
scalar Forest.networkTwo[80].nic.mac 	nbTxAcks 	0
scalar Forest.networkTwo[80].nic.mac 	nbDuplicates 	0
scalar Forest.networkTwo[80].nic.mac 	meanBackoff 	0.0025826956767448
scalar Forest.networkTwo[80].nic.mac 	nbBackoffs 	10617
scalar Forest.networkTwo[80].nic.mac 	backoffDurations 	27.420479999999
scalar Forest.networkTwo[80].nic.phy 	nbFramesWithInterference 	9793
scalar Forest.networkTwo[80].nic.phy 	nbFramesWithoutInterference 	63375
scalar Forest.networkTwo[80].nic.phy 	nbFramesWithInterferencePartial 	2820
scalar Forest.networkTwo[80].nic.phy 	nbFramesWithoutInterferencePartial 	7
scalar Forest.networkTwo[80].nic.phy 	nbFramesWithInterferenceDropped 	1666
scalar Forest.networkTwo[80].nic.phy 	nbFramesWithoutInterferenceDropped 	91
scalar Forest.networkTwo[80].netwl 	nbDataPacketsForwarded 	2502
scalar Forest.networkTwo[80].netwl 	nbDataPacketsReceived 	0
scalar Forest.networkTwo[80].netwl 	nbDataPacketsSent 	2500
scalar Forest.networkTwo[80].netwl 	nbDuplicatedFloodsReceived 	18853
scalar Forest.networkTwo[80].netwl 	nbFloodsSent 	0
scalar Forest.networkTwo[80].netwl 	nbPureUnicastSent 	2500
scalar Forest.networkTwo[80].netwl 	nbRouteFloodsSent 	0
scalar Forest.networkTwo[80].netwl 	nbRouteFloodsReceived 	3
scalar Forest.networkTwo[80].netwl 	nbUnicastFloodForwarded 	2499
scalar Forest.networkTwo[80].netwl 	nbPureUnicastForwarded 	0
scalar Forest.networkTwo[80].netwl 	nbGetRouteFailures 	0
scalar Forest.networkTwo[80].netwl 	nbRoutesRecorded 	1
scalar Forest.networkTwo[80].netwl 	meanNbHops 	-nan
scalar Forest.networkTwo[80].tranl 	nbAggrPktReceived 	0
scalar Forest.networkTwo[80].tranl 	"nbAggrPktSentDown " 	0
scalar Forest.networkTwo[80].batteryStats 	nominal 	10800000
attr unit  mW-s
scalar Forest.networkTwo[80].batteryStats 	total 	154628.3472267
attr unit  mW-s
scalar Forest.networkTwo[80].batteryStats 	lifetime 	-1
attr unit  s
scalar Forest.networkTwo[80].batteryStats 	"Mean power consumption" 	30.863926341814
attr unit  mW
scalar Forest.networkTwo[80].batteryStats 	"num devices" 	2
scalar Forest.networkTwo[80].batteryStats 	"physical layer" 	0
scalar Forest.networkTwo[80].batteryStats 	"device total (mWs)" 	154294.01821934
scalar Forest.networkTwo[80].batteryStats 	account 	0
scalar Forest.networkTwo[80].batteryStats 	"energy (mWs)" 	0.14325693348316
scalar Forest.networkTwo[80].batteryStats 	"time (s)" 	2273.9195790977
scalar Forest.networkTwo[80].batteryStats 	"account 0" 	0.14325693348316
scalar Forest.networkTwo[80].batteryStats 	account 	1
scalar Forest.networkTwo[80].batteryStats 	"energy (mWs)" 	153932.7712936
scalar Forest.networkTwo[80].batteryStats 	"time (s)" 	2729.3044555603
scalar Forest.networkTwo[80].batteryStats 	"account 1" 	153932.7712936
scalar Forest.networkTwo[80].batteryStats 	account 	2
scalar Forest.networkTwo[80].batteryStats 	"energy (mWs)" 	263.48722559997
scalar Forest.networkTwo[80].batteryStats 	"time (s)" 	5.047648
scalar Forest.networkTwo[80].batteryStats 	"account 2" 	263.48722559997
scalar Forest.networkTwo[80].batteryStats 	account 	3
scalar Forest.networkTwo[80].batteryStats 	"energy (mWs)" 	97.616443199991
scalar Forest.networkTwo[80].batteryStats 	"time (s)" 	1.730788
scalar Forest.networkTwo[80].batteryStats 	"account 3" 	97.616443199991
scalar Forest.networkTwo[80].batteryStats 	account 	4
scalar Forest.networkTwo[80].batteryStats 	"energy (mWs)" 	0
scalar Forest.networkTwo[80].batteryStats 	"time (s)" 	0
scalar Forest.networkTwo[80].batteryStats 	"account 4" 	0
scalar Forest.networkTwo[80].batteryStats 	TemperatureSensorLayer 	1
scalar Forest.networkTwo[80].batteryStats 	"device total (mWs)" 	334.32900222357
scalar Forest.networkTwo[80].batteryStats 	account 	0
scalar Forest.networkTwo[80].batteryStats 	"energy (mWs)" 	334.32900222357
scalar Forest.networkTwo[80].batteryStats 	"time (s)" 	5010.0024706581
scalar Forest.networkTwo[80].batteryStats 	"account 0" 	334.32900222357
scalar Forest.networkTwo[80].applSensor 	"activity duration" 	-1
attr unit  s
scalar Forest.networkTwo[80].applSensor 	firstPacketGeneration 	-1
attr unit  s
scalar Forest.networkTwo[80].applSensor 	lastPacketReception 	-2
attr unit  s
scalar Forest.networkTwo[80].applSensor 	nbPacketsSent 	2500
scalar Forest.networkTwo[80].applSensor 	nbPacketsReceived 	0
statistic Forest.networkTwo[80].applSensor 	latency
field count 0
field mean 0
field stddev -nan
field sum 0
field sqrsum 0
field min 0
field max 0
