version 2
run Nodes_in_grid-0-20130702-15:53:28-11205
attr configname Nodes_in_grid
attr datetime 20130702-15:53:28
attr experiment Nodes_in_grid
attr inifile omnetpp.ini
attr iterationvars "$0=5000, $1=5000, $2=5000, $3=5000, $4=5000, $5=5000, $6=5000, $7=5000, $8=5000, $9=5000, $10=0, $11=0, $12=0, $13=0, $14=0, $15=0, $16=0, $17=0, $18=0, $19=0, $plan=1, $sensitivity=-94dBm, $20=0"
attr iterationvars2 "$0=5000, $1=5000, $2=5000, $3=5000, $4=5000, $5=5000, $6=5000, $7=5000, $8=5000, $9=5000, $10=0, $11=0, $12=0, $13=0, $14=0, $15=0, $16=0, $17=0, $18=0, $19=0, $plan=1, $sensitivity=-94dBm, $20=0, $repetition=0"
attr measurement "$0=5000, $1=5000, $2=5000, $3=5000, $4=5000, $5=5000, $6=5000, $7=5000, $8=5000, $9=5000, $10=0, $11=0, $12=0, $13=0, $14=0, $15=0, $16=0, $17=0, $18=0, $19=0, $plan=1, $sensitivity=-94dBm, $20=0"
attr network Forest
attr plan 1
attr processid 11205
attr repetition 0
attr replication #0
attr resultdir results
attr runnumber 0
attr seedset 0
attr sensitivity -94dBm

scalar . 	plan 	1
scalar . 	sensitivity 	-94
attr unit  dBm
scalar Forest.networkOne[0].nic.mac 	nbTxFrames 	4574
scalar Forest.networkOne[0].nic.mac 	nbRxFrames 	148933
scalar Forest.networkOne[0].nic.mac 	nbDroppedFrames 	1
scalar Forest.networkOne[0].nic.mac 	nbMissedAcks 	0
scalar Forest.networkOne[0].nic.mac 	nbRecvdAcks 	0
scalar Forest.networkOne[0].nic.mac 	nbTxAcks 	0
scalar Forest.networkOne[0].nic.mac 	nbDuplicates 	0
scalar Forest.networkOne[0].nic.mac 	meanBackoff 	0.0013417884943991
scalar Forest.networkOne[0].nic.mac 	nbBackoffs 	5267
scalar Forest.networkOne[0].nic.mac 	backoffDurations 	7.0672
scalar Forest.networkOne[0].nic.phy 	nbFramesWithInterference 	30447
scalar Forest.networkOne[0].nic.phy 	nbFramesWithoutInterference 	152543
scalar Forest.networkOne[0].nic.phy 	nbFramesWithInterferencePartial 	3148
scalar Forest.networkOne[0].nic.phy 	nbFramesWithoutInterferencePartial 	8
scalar Forest.networkOne[0].nic.phy 	nbFramesWithInterferenceDropped 	3179
scalar Forest.networkOne[0].nic.phy 	nbFramesWithoutInterferenceDropped 	105
scalar Forest.networkOne[0].netwl 	nbDataPacketsForwarded 	0
scalar Forest.networkOne[0].netwl 	nbDataPacketsReceived 	111662
scalar Forest.networkOne[0].netwl 	nbDataPacketsSent 	4570
scalar Forest.networkOne[0].netwl 	nbDuplicatedFloodsReceived 	37827
scalar Forest.networkOne[0].netwl 	nbFloodsSent 	4575
scalar Forest.networkOne[0].netwl 	nbPureUnicastSent 	0
scalar Forest.networkOne[0].netwl 	nbRouteFloodsSent 	5
scalar Forest.networkOne[0].netwl 	nbRouteFloodsReceived 	0
scalar Forest.networkOne[0].netwl 	nbUnicastFloodForwarded 	0
scalar Forest.networkOne[0].netwl 	nbPureUnicastForwarded 	0
scalar Forest.networkOne[0].netwl 	nbGetRouteFailures 	4570
scalar Forest.networkOne[0].netwl 	nbRoutesRecorded 	0
scalar Forest.networkOne[0].netwl 	meanNbHops 	0.60537156776701
scalar Forest.networkOne[0].tranl 	nbAggrPktReceived 	0
scalar Forest.networkOne[0].tranl 	"nbAggrPktSentDown " 	0
scalar Forest.networkOne[0].batteryStats 	nominal 	10800000
attr unit  mW-s
scalar Forest.networkOne[0].batteryStats 	total 	283149.930917
attr unit  mW-s
scalar Forest.networkOne[0].batteryStats 	lifetime 	-1
attr unit  s
scalar Forest.networkOne[0].batteryStats 	"Mean power consumption" 	56.516947137462
attr unit  mW
scalar Forest.networkOne[0].batteryStats 	"num devices" 	2
scalar Forest.networkOne[0].batteryStats 	"physical layer" 	0
scalar Forest.networkOne[0].batteryStats 	"device total (mWs)" 	282542.51095295
scalar Forest.networkOne[0].batteryStats 	account 	0
scalar Forest.networkOne[0].batteryStats 	"energy (mWs)" 	0
scalar Forest.networkOne[0].batteryStats 	"time (s)" 	0
scalar Forest.networkOne[0].batteryStats 	"account 0" 	0
scalar Forest.networkOne[0].batteryStats 	account 	1
scalar Forest.networkOne[0].batteryStats 	"energy (mWs)" 	282176.05145855
scalar Forest.networkOne[0].batteryStats 	"time (s)" 	5003.1214797626
scalar Forest.networkOne[0].batteryStats 	"account 1" 	282176.05145855
scalar Forest.networkOne[0].batteryStats 	account 	2
scalar Forest.networkOne[0].batteryStats 	"energy (mWs)" 	267.39763199998
scalar Forest.networkOne[0].batteryStats 	"time (s)" 	5.12256
scalar Forest.networkOne[0].batteryStats 	"account 2" 	267.39763199998
scalar Forest.networkOne[0].batteryStats 	account 	3
scalar Forest.networkOne[0].batteryStats 	"energy (mWs)" 	99.061862399991
scalar Forest.networkOne[0].batteryStats 	"time (s)" 	1.756416
scalar Forest.networkOne[0].batteryStats 	"account 3" 	99.061862399991
scalar Forest.networkOne[0].batteryStats 	account 	4
scalar Forest.networkOne[0].batteryStats 	"energy (mWs)" 	0
scalar Forest.networkOne[0].batteryStats 	"time (s)" 	0
scalar Forest.networkOne[0].batteryStats 	"account 4" 	0
scalar Forest.networkOne[0].batteryStats 	TemperatureSensorLayer 	1
scalar Forest.networkOne[0].batteryStats 	"device total (mWs)" 	607.41996041025
scalar Forest.networkOne[0].batteryStats 	account 	0
scalar Forest.networkOne[0].batteryStats 	"energy (mWs)" 	607.41996041025
scalar Forest.networkOne[0].batteryStats 	"time (s)" 	5010.0004557626
scalar Forest.networkOne[0].batteryStats 	"account 0" 	607.41996041025
scalar Forest.networkOne[0].applSensor 	latency1 	0.0055398898294794
attr unit  s
statistic Forest.networkOne[0].applSensor 	1
field count 4599
field mean 0.0055398898294794
field stddev 0.0043937126627163
field sum 25.477953325776
field sqrsum 0.22990811551105
field min 0.003232
field max 0.057761813511
scalar Forest.networkOne[0].applSensor 	latency2 	0.0055166848607126
attr unit  s
statistic Forest.networkOne[0].applSensor 	2
field count 4182
field mean 0.0055166848607126
field stddev 0.0040746363035779
field sum 23.0707760875
field sqrsum 0.19668992683471
field min 0.003232
field max 0.051660439634
scalar Forest.networkOne[0].applSensor 	latency3 	0.005435547250195
attr unit  s
statistic Forest.networkOne[0].applSensor 	3
field count 3215
field mean 0.005435547250195
field stddev 0.0039970977352703
field sum 17.475284409377
field sqrsum 0.14633713815901
field min 0.003232
field max 0.050198441375
scalar Forest.networkOne[0].applSensor 	latency4 	0.010657598909277
attr unit  s
statistic Forest.networkOne[0].applSensor 	4
field count 3579
field mean 0.010657598909277
field stddev 0.0050230888340768
field sum 38.143546496301
field sqrsum 0.49679664542945
field min 0.006464
field max 0.061364218482
scalar Forest.networkOne[0].applSensor 	latency5 	0.010990957191593
attr unit  s
statistic Forest.networkOne[0].applSensor 	5
field count 81
field mean 0.010990957191593
field stddev 0.0061379861782918
field sum 0.890267532519
field sqrsum 0.012798882284973
field min 0.006464
field max 0.057012404602
scalar Forest.networkOne[0].applSensor 	latency6 	0.010922880716728
attr unit  s
statistic Forest.networkOne[0].applSensor 	6
field count 562
field mean 0.010922880716728
field stddev 0.0049147899090084
field sum 6.138658962801
field sqrsum 0.080602884287024
field min 0.006464
field max 0.045780311758
scalar Forest.networkOne[0].applSensor 	latency7 	0.01043432231748
attr unit  s
statistic Forest.networkOne[0].applSensor 	7
field count 920
field mean 0.01043432231748
field stddev 0.0047096765595994
field sum 9.599576532082
field sqrsum 0.12054946362613
field min 0.006464
field max 0.048316806694
scalar Forest.networkOne[0].applSensor 	latency8 	0.010453783047125
attr unit  s
statistic Forest.networkOne[0].applSensor 	8
field count 626
field mean 0.010453783047125
field stddev 0.004368421937646
field sum 6.5440681875
field sqrsum 0.080337212968532
field min 0.006464
field max 0.051148090671
scalar Forest.networkOne[0].applSensor 	latency9 	0.0054959448102379
attr unit  s
statistic Forest.networkOne[0].applSensor 	9
field count 4585
field mean 0.0054959448102379
field stddev 0.0038305381889334
field sum 25.198906954941
field sqrsum 0.20575293849524
field min 0.003232
field max 0.050726437685
scalar Forest.networkOne[0].applSensor 	latency10 	0.0053908164962213
attr unit  s
statistic Forest.networkOne[0].applSensor 	10
field count 4456
field mean 0.0053908164962213
field stddev 0.0037994795161155
field sum 24.021478307162
field sqrsum 0.19380796018539
field min 0.003232
field max 0.052058026246
scalar Forest.networkOne[0].applSensor 	latency11 	0.0055490024571404
attr unit  s
statistic Forest.networkOne[0].applSensor 	11
field count 4096
field mean 0.0055490024571404
field stddev 0.0042449476842467
field sum 22.728714064447
field sqrsum 0.19991187373921
field min 0.003232
field max 0.05474702061
scalar Forest.networkOne[0].applSensor 	latency12 	0.0054381881079306
attr unit  s
statistic Forest.networkOne[0].applSensor 	12
field count 2924
field mean 0.0054381881079306
field stddev 0.0038720091277933
field sum 15.901262027589
field sqrsum 0.13029699910587
field min 0.003232
field max 0.052642469934
scalar Forest.networkOne[0].applSensor 	latency13 	0.010633810034808
attr unit  s
statistic Forest.networkOne[0].applSensor 	13
field count 1685
field mean 0.010633810034808
field stddev 0.0047591634356932
field sum 17.917969908651
field sqrsum 0.22867827626526
field min 0.006464
field max 0.051269505624
scalar Forest.networkOne[0].applSensor 	latency14 	0.0055317081604551
attr unit  s
statistic Forest.networkOne[0].applSensor 	14
field count 1013
field mean 0.0055317081604551
field stddev 0.0033937873897197
field sum 5.603620366541
field sqrsum 0.042653598870467
field min 0.003232
field max 0.033605420352
scalar Forest.networkOne[0].applSensor 	latency15 	0.010755432775104
attr unit  s
statistic Forest.networkOne[0].applSensor 	15
field count 767
field mean 0.010755432775104
field stddev 0.0044171973968038
field sum 8.249416938505
field sqrsum 0.10367196007312
field min 0.006464
field max 0.035961671166
scalar Forest.networkOne[0].applSensor 	latency16 	0.010694193645149
attr unit  s
statistic Forest.networkOne[0].applSensor 	16
field count 269
field mean 0.010694193645149
field stddev 0.0045989361379084
field sum 2.876738090545
field sqrsum 0.036432651451613
field min 0.006464
field max 0.044666441421
scalar Forest.networkOne[0].applSensor 	latency17 	0.0057888722631392
attr unit  s
statistic Forest.networkOne[0].applSensor 	17
field count 158
field mean 0.0057888722631392
field stddev 0.0048931981931902
field sum 0.914641817576
field sqrsum 0.0090538566520539
field min 0.003232
field max 0.031432118238
scalar Forest.networkOne[0].applSensor 	latency18 	0.0054396368922757
attr unit  s
statistic Forest.networkOne[0].applSensor 	18
field count 4233
field mean 0.0054396368922757
field stddev 0.0038426807453686
field sum 23.025982965003
field sqrsum 0.18774352497276
field min 0.003232
field max 0.06000315037
scalar Forest.networkOne[0].applSensor 	latency19 	0.0054453593699259
attr unit  s
statistic Forest.networkOne[0].applSensor 	19
field count 4131
field mean 0.0054453593699259
field stddev 0.0039173947580901
field sum 22.494779557164
field sqrsum 0.18587106301866
field min 0.003232
field max 0.053759495883
scalar Forest.networkOne[0].applSensor 	latency20 	0.0055332399398668
attr unit  s
statistic Forest.networkOne[0].applSensor 	20
field count 3386
field mean 0.0055332399398668
field stddev 0.0040788835308582
field sum 18.735550436389
field sqrsum 0.15998552552539
field min 0.003232
field max 0.057912430535
scalar Forest.networkOne[0].applSensor 	latency21 	0.0055055666891324
attr unit  s
statistic Forest.networkOne[0].applSensor 	21
field count 2379
field mean 0.0055055666891324
field stddev 0.0040948193961174
field sum 13.097743153446
field sqrsum 0.11198372252728
field min 0.003232
field max 0.060262766734
scalar Forest.networkOne[0].applSensor 	latency22 	0.010908507206836
attr unit  s
statistic Forest.networkOne[0].applSensor 	22
field count 2051
field mean 0.010908507206836
field stddev 0.0056717569671201
field sum 22.37334828122
field sqrsum 0.31000592650959
field min 0.006464
field max 0.056291715558
scalar Forest.networkOne[0].applSensor 	latency23 	0.010592932217568
attr unit  s
statistic Forest.networkOne[0].applSensor 	23
field count 1538
field mean 0.010592932217568
field stddev 0.0047979621311814
field sum 16.29192975062
field sqrsum 0.20796172476273
field min 0.006464
field max 0.054464
scalar Forest.networkOne[0].applSensor 	latency24 	0.016026803281212
attr unit  s
statistic Forest.networkOne[0].applSensor 	24
field count 799
field mean 0.016026803281212
field stddev 0.0062042746429689
field sum 12.805415821688
field sqrsum 0.23594731333693
field min 0.010016
field max 0.055456
scalar Forest.networkOne[0].applSensor 	latency25 	0.010727588120007
attr unit  s
statistic Forest.networkOne[0].applSensor 	25
field count 149
field mean 0.010727588120007
field stddev 0.0049626726688873
field sum 1.598410629881
field sqrsum 0.020792052646745
field min 0.006464
field max 0.03537081215
scalar Forest.networkOne[0].applSensor 	latency26 	0.010617724005367
attr unit  s
statistic Forest.networkOne[0].applSensor 	26
field count 275
field mean 0.010617724005367
field stddev 0.00508940638012
field sum 2.919874101476
field sqrsum 0.038099581040642
field min 0.006464
field max 0.055572519954
scalar Forest.networkOne[0].applSensor 	latency27 	0.005381433618154
attr unit  s
statistic Forest.networkOne[0].applSensor 	27
field count 3280
field mean 0.005381433618154
field stddev 0.0035996826107399
field sum 17.651102267545
field sqrsum 0.13747658229079
field min 0.003232
field max 0.049075932286
scalar Forest.networkOne[0].applSensor 	latency28 	0.0053540605815156
attr unit  s
statistic Forest.networkOne[0].applSensor 	28
field count 3018
field mean 0.0053540605815156
field stddev 0.0034255552354618
field sum 16.158554835014
field sqrsum 0.12191665279742
field min 0.003232
field max 0.048868799551
scalar Forest.networkOne[0].applSensor 	latency29 	0.0056849141808056
attr unit  s
statistic Forest.networkOne[0].applSensor 	29
field count 2376
field mean 0.0056849141808056
field stddev 0.004324595655772
field sum 13.507356093594
field sqrsum 0.12120571321823
field min 0.003232
field max 0.053118968371
scalar Forest.networkOne[0].applSensor 	latency30 	0.010650905744271
attr unit  s
statistic Forest.networkOne[0].applSensor 	30
field count 3498
field mean 0.010650905744271
field stddev 0.0050000019889094
field sum 37.25686829346
field sqrsum 0.48424446207254
field min 0.006464
field max 0.059402219201
scalar Forest.networkOne[0].applSensor 	latency31 	0.015777373605895
attr unit  s
statistic Forest.networkOne[0].applSensor 	31
field count 1579
field mean 0.015777373605895
field stddev 0.0059085272007531
field sum 24.912472923708
field sqrsum 0.44814246739434
field min 0.010016
field max 0.061692589228
scalar Forest.networkOne[0].applSensor 	latency32 	0.010496840288606
attr unit  s
statistic Forest.networkOne[0].applSensor 	32
field count 1644
field mean 0.010496840288606
field stddev 0.0044151010880582
field sum 17.256805434468
field sqrsum 0.21316912278316
field min 0.006464
field max 0.048070935156
scalar Forest.networkOne[0].applSensor 	latency33 	0.010484448937206
attr unit  s
statistic Forest.networkOne[0].applSensor 	33
field count 617
field mean 0.010484448937206
field stddev 0.0044661062840972
field sum 6.468904994256
field sqrsum 0.080109704981878
field min 0.006464
field max 0.043498168679
scalar Forest.networkOne[0].applSensor 	latency34 	0.010685081469897
attr unit  s
statistic Forest.networkOne[0].applSensor 	34
field count 117
field mean 0.010685081469897
field stddev 0.0044984937941773
field sum 1.250154531978
field sqrsum 0.015705430808432
field min 0.006784
field max 0.033024
scalar Forest.networkOne[0].applSensor 	latency35 	0.010449706469656
attr unit  s
statistic Forest.networkOne[0].applSensor 	35
field count 543
field mean 0.010449706469656
field stddev 0.0046644866113395
field sum 5.674190613023
field sqrsum 0.071086156317237
field min 0.006464
field max 0.044224
scalar Forest.networkOne[0].applSensor 	latency36 	0.01069595827351
attr unit  s
statistic Forest.networkOne[0].applSensor 	36
field count 2020
field mean 0.01069595827351
field stddev 0.0049587282027666
field sum 21.605835712491
field sqrsum 0.28074027874534
field min 0.006464
field max 0.057739748023
scalar Forest.networkOne[0].applSensor 	latency37 	0.0054519501594074
attr unit  s
statistic Forest.networkOne[0].applSensor 	37
field count 1885
field mean 0.0054519501594074
field stddev 0.0039144735031555
field sum 10.276926050483
field sqrsum 0.084898014307362
field min 0.003232
field max 0.041019080343
scalar Forest.networkOne[0].applSensor 	latency38 	0.010647160035814
attr unit  s
statistic Forest.networkOne[0].applSensor 	38
field count 2774
field mean 0.010647160035814
field stddev 0.0052216477795186
field sum 29.535221939347
field sqrsum 0.39007375882549
field min 0.006464
field max 0.064758120099
scalar Forest.networkOne[0].applSensor 	latency39 	0.010642071891469
attr unit  s
statistic Forest.networkOne[0].applSensor 	39
field count 2356
field mean 0.010642071891469
field stddev 0.0049152639098232
field sum 25.072721376302
field sqrsum 0.32372207786045
field min 0.006464
field max 0.05170053748
scalar Forest.networkOne[0].applSensor 	latency40 	0.0054458891819971
attr unit  s
statistic Forest.networkOne[0].applSensor 	40
field count 681
field mean 0.0054458891819971
field stddev 0.0035222825142641
field sum 3.70865053294
field sqrsum 0.028633302212143
field min 0.003232
field max 0.045070894031
scalar Forest.networkOne[0].applSensor 	latency41 	0.010841379491591
attr unit  s
statistic Forest.networkOne[0].applSensor 	41
field count 1554
field mean 0.010841379491591
field stddev 0.0054260744292304
field sum 16.847503729932
field sqrsum 0.22837404802622
field min 0.006464
field max 0.057287518304
scalar Forest.networkOne[0].applSensor 	latency42 	0.010647926072885
attr unit  s
statistic Forest.networkOne[0].applSensor 	42
field count 1009
field mean 0.010647926072885
field stddev 0.0047344183339283
field sum 10.743757407541
field sqrsum 0.13699276931683
field min 0.006464
field max 0.046456617101
scalar Forest.networkOne[0].applSensor 	latency43 	0.010733878170598
attr unit  s
statistic Forest.networkOne[0].applSensor 	43
field count 569
field mean 0.010733878170598
field stddev 0.0048096908691441
field sum 6.10757667907
field sqrsum 0.078697599704541
field min 0.006464
field max 0.045179064261
scalar Forest.networkOne[0].applSensor 	latency44 	0.010781370129576
attr unit  s
statistic Forest.networkOne[0].applSensor 	44
field count 92
field mean 0.010781370129576
field stddev 0.0050036581560121
field sum 0.991886051921
field sqrsum 0.012972220791867
field min 0.006464
field max 0.038679002491
scalar Forest.networkOne[0].applSensor 	latency45 	0.010665196608083
attr unit  s
statistic Forest.networkOne[0].applSensor 	45
field count 1751
field mean 0.010665196608083
field stddev 0.0049871750533015
field sum 18.674759260753
field sqrsum 0.24269583039602
field min 0.006464
field max 0.055088853061
scalar Forest.networkOne[0].applSensor 	latency46 	0.010791360925015
attr unit  s
statistic Forest.networkOne[0].applSensor 	46
field count 1649
field mean 0.010791360925015
field stddev 0.0055187814564806
field sum 17.794954165349
field sqrsum 0.24222482460609
field min 0.006464
field max 0.061679068652
scalar Forest.networkOne[0].applSensor 	latency47 	0.005509705159657
attr unit  s
statistic Forest.networkOne[0].applSensor 	47
field count 927
field mean 0.005509705159657
field stddev 0.0038118143607246
field sum 5.107496683002
field sqrsum 0.041595514822567
field min 0.003232
field max 0.039294463824
scalar Forest.networkOne[0].applSensor 	latency48 	0.015819084199533
attr unit  s
statistic Forest.networkOne[0].applSensor 	48
field count 2696
field mean 0.015819084199533
field stddev 0.0057293294155369
field sum 42.64825100194
field sqrsum 0.76312022947442
field min 0.009696
field max 0.060896
scalar Forest.networkOne[0].applSensor 	latency49 	0.010725950049366
attr unit  s
statistic Forest.networkOne[0].applSensor 	49
field count 1737
field mean 0.010725950049366
field stddev 0.0052998055262581
field sum 18.630975235749
field sqrsum 0.24859557118727
field min 0.006464
field max 0.05684513814
scalar Forest.networkOne[0].applSensor 	latency50 	0.010840313720052
attr unit  s
statistic Forest.networkOne[0].applSensor 	50
field count 968
field mean 0.010840313720052
field stddev 0.0053768458350719
field sum 10.49342368101
field sqrsum 0.14170843028627
field min 0.006464
field max 0.060878848386
scalar Forest.networkOne[0].applSensor 	latency51 	0.010788493884615
attr unit  s
statistic Forest.networkOne[0].applSensor 	51
field count 296
field mean 0.010788493884615
field stddev 0.0056420144077632
field sum 3.193394189846
field sqrsum 0.043842450028654
field min 0.006464
field max 0.047822252787
scalar Forest.networkOne[0].applSensor 	latency52 	0.010933595685157
attr unit  s
statistic Forest.networkOne[0].applSensor 	52
field count 447
field mean 0.010933595685157
field stddev 0.0053382127001184
field sum 4.887317271265
field sqrsum 0.066145396644035
field min 0.006464
field max 0.060028572849
scalar Forest.networkOne[0].applSensor 	latency53 	0.010293252863424
attr unit  s
statistic Forest.networkOne[0].applSensor 	53
field count 59
field mean 0.010293252863424
field stddev 0.0038730643949569
field sum 0.607301918942
field sqrsum 0.0071211486289464
field min 0.007424
field max 0.032069918942
scalar Forest.networkOne[0].applSensor 	latency54 	0.010690439969532
attr unit  s
statistic Forest.networkOne[0].applSensor 	54
field count 1713
field mean 0.010690439969532
field stddev 0.0049428022034625
field sum 18.312723667809
field sqrsum 0.23759744773116
field min 0.006464
field max 0.05106150425
scalar Forest.networkOne[0].applSensor 	latency55 	0.0056916138519089
attr unit  s
statistic Forest.networkOne[0].applSensor 	55
field count 549
field mean 0.0056916138519089
field stddev 0.0043781011334619
field sum 3.124696004698
field sqrsum 0.028288500768425
field min 0.003232
field max 0.045426161606
scalar Forest.networkOne[0].applSensor 	latency56 	0.010364810195655
attr unit  s
statistic Forest.networkOne[0].applSensor 	56
field count 937
field mean 0.010364810195655
field stddev 0.0043956402370081
field sum 9.711827153329
field sqrsum 0.11874631239251
field min 0.006464
field max 0.055267286411
scalar Forest.networkOne[0].applSensor 	latency57 	0.015707612325324
attr unit  s
statistic Forest.networkOne[0].applSensor 	57
field count 743
field mean 0.015707612325324
field stddev 0.0062373737398115
field sum 11.670755957716
field sqrsum 0.21218709485548
field min 0.009696
field max 0.065376
scalar Forest.networkOne[0].applSensor 	latency58 	0.010624147617767
attr unit  s
statistic Forest.networkOne[0].applSensor 	58
field count 643
field mean 0.010624147617767
field stddev 0.005129894446459
field sum 6.831326918224
field sqrsum 0.089471780138858
field min 0.006464
field max 0.069520261856
scalar Forest.networkOne[0].applSensor 	latency59 	0.01070742695552
attr unit  s
statistic Forest.networkOne[0].applSensor 	59
field count 608
field mean 0.01070742695552
field stddev 0.0053029992211626
field sum 6.510115588956
field sqrsum 0.086776520189705
field min 0.006464
field max 0.055729912329
scalar Forest.networkOne[0].applSensor 	latency60 	0.010804349168289
attr unit  s
statistic Forest.networkOne[0].applSensor 	60
field count 599
field mean 0.010804349168289
field stddev 0.0045477822809248
field sum 6.471805151805
field sqrsum 0.082291672166698
field min 0.006464
field max 0.040616692051
scalar Forest.networkOne[0].applSensor 	latency61 	0.015711077441702
attr unit  s
statistic Forest.networkOne[0].applSensor 	61
field count 868
field mean 0.015711077441702
field stddev 0.0061998499770905
field sum 13.637215219397
field sqrsum 0.24758121155432
field min 0.010016
field max 0.074430733882
scalar Forest.networkOne[0].applSensor 	latency62 	0.015310445127441
attr unit  s
statistic Forest.networkOne[0].applSensor 	62
field count 567
field mean 0.015310445127441
field stddev 0.0051558329576789
field sum 8.681022387259
field sqrsum 0.14795607614413
field min 0.009696
field max 0.060177276049
scalar Forest.networkOne[0].applSensor 	latency63 	0.015361689789051
attr unit  s
statistic Forest.networkOne[0].applSensor 	63
field count 79
field mean 0.015361689789051
field stddev 0.0051927486071305
field sum 1.213573493335
field sqrsum 0.020745781312382
field min 0.009696
field max 0.041056
scalar Forest.networkOne[0].applSensor 	latency64 	0.010772940246212
attr unit  s
statistic Forest.networkOne[0].applSensor 	64
field count 739
field mean 0.010772940246212
field stddev 0.004782661551866
field sum 7.961202841951
field sqrsum 0.10264646492585
field min 0.006464
field max 0.045295227045
scalar Forest.networkOne[0].applSensor 	latency65 	0.010416338561863
attr unit  s
statistic Forest.networkOne[0].applSensor 	65
field count 781
field mean 0.010416338561863
field stddev 0.004223881336075
field sum 8.135160416815
field sqrsum 0.098654700518781
field min 0.006464
field max 0.042892445063
scalar Forest.networkOne[0].applSensor 	latency66 	0.01571481025861
attr unit  s
statistic Forest.networkOne[0].applSensor 	66
field count 784
field mean 0.01571481025861
field stddev 0.0057715830581657
field sum 12.32041124275
field sqrsum 0.21969557187875
field min 0.009696
field max 0.053442566272
scalar Forest.networkOne[0].applSensor 	latency67 	0.010223459741829
attr unit  s
statistic Forest.networkOne[0].applSensor 	67
field count 410
field mean 0.010223459741829
field stddev 0.0038973485244892
field sum 4.19161849415
field sqrsum 0.049065277066277
field min 0.006464
field max 0.046155771697
scalar Forest.networkOne[0].applSensor 	latency68 	0.015843387785044
attr unit  s
statistic Forest.networkOne[0].applSensor 	68
field count 205
field mean 0.015843387785044
field stddev 0.0058956443736585
field sum 3.247894495934
field sqrsum 0.058548410990445
field min 0.010336
field max 0.051936
scalar Forest.networkOne[0].applSensor 	latency69 	0.01585823343318
attr unit  s
statistic Forest.networkOne[0].applSensor 	69
field count 556
field mean 0.01585823343318
field stddev 0.0057135617190432
field sum 8.817177788848
field sqrsum 0.15794272066951
field min 0.009696
field max 0.056894251544
scalar Forest.networkOne[0].applSensor 	latency70 	0.015968372407382
attr unit  s
statistic Forest.networkOne[0].applSensor 	70
field count 612
field mean 0.015968372407382
field stddev 0.0062440219155961
field sum 9.772643913318
field sqrsum 0.17987476912857
field min 0.010016
field max 0.068031469885
scalar Forest.networkOne[0].applSensor 	latency71 	0.015843615117243
attr unit  s
statistic Forest.networkOne[0].applSensor 	71
field count 173
field mean 0.015843615117243
field stddev 0.0053953991146398
field sum 2.740945415283
field sqrsum 0.048433461253391
field min 0.010336
field max 0.042954077994
scalar Forest.networkOne[0].applSensor 	latency72 	0.005148853431098
attr unit  s
statistic Forest.networkOne[0].applSensor 	72
field count 153
field mean 0.005148853431098
field stddev 0.0030387857670888
field sum 0.787774574958
field sqrsum 0.0054597371018201
field min 0.003232
field max 0.031712
scalar Forest.networkOne[0].applSensor 	latency73 	0.015675138334271
attr unit  s
statistic Forest.networkOne[0].applSensor 	73
field count 749
field mean 0.015675138334271
field stddev 0.005807549788032
field sum 11.740678612369
field sqrsum 0.20926503202337
field min 0.009696
field max 0.061940662488
scalar Forest.networkOne[0].applSensor 	latency74 	0.01061153966163
attr unit  s
statistic Forest.networkOne[0].applSensor 	74
field count 108
field mean 0.01061153966163
field stddev 0.0041692522638269
field sum 1.146046283456
field sqrsum 0.014021260685975
field min 0.006464
field max 0.028864
scalar Forest.networkOne[0].applSensor 	latency75 	0.011249087850169
attr unit  s
statistic Forest.networkOne[0].applSensor 	75
field count 89
field mean 0.011249087850169
field stddev 0.005611373784667
field sum 1.001168818665
field sqrsum 0.014033137380122
field min 0.007424
field max 0.039696818665
scalar Forest.networkOne[0].applSensor 	latency76 	0.010721856122572
attr unit  s
statistic Forest.networkOne[0].applSensor 	76
field count 446
field mean 0.010721856122572
field stddev 0.0050678180846495
field sum 4.781947830667
field sqrsum 0.062700193787955
field min 0.006464
field max 0.052073571317
scalar Forest.networkOne[0].applSensor 	latency77 	0.015379117283998
attr unit  s
statistic Forest.networkOne[0].applSensor 	77
field count 666
field mean 0.015379117283998
field stddev 0.0049558668207096
field sum 10.242492111143
field sqrsum 0.17385329706086
field min 0.009696
field max 0.058737264719
scalar Forest.networkOne[0].applSensor 	latency78 	0.016372045324388
attr unit  s
statistic Forest.networkOne[0].applSensor 	78
field count 492
field mean 0.016372045324388
field stddev 0.0058741355430153
field sum 8.055046299599
field sqrsum 0.14881976808054
field min 0.009696
field max 0.05635408655
scalar Forest.networkOne[0].applSensor 	latency79 	0.016312552316446
attr unit  s
statistic Forest.networkOne[0].applSensor 	79
field count 186
field mean 0.016312552316446
field stddev 0.006025699479707
field sum 3.034134730859
field sqrsum 0.056211656562936
field min 0.009696
field max 0.041056
scalar Forest.networkOne[0].applSensor 	latency80 	0.015343293519781
attr unit  s
statistic Forest.networkOne[0].applSensor 	80
field count 407
field mean 0.015343293519781
field stddev 0.0043352255196854
field sum 6.244720462551
field sqrsum 0.10344501621036
field min 0.010336
field max 0.042351713965
scalar Forest.networkOne[0].applSensor 	"activity duration" 	4999.8946373829
attr unit  s
scalar Forest.networkOne[0].applSensor 	firstPacketGeneration 	10.10021839912
attr unit  s
scalar Forest.networkOne[0].applSensor 	lastPacketReception 	5009.994855782
attr unit  s
scalar Forest.networkOne[0].applSensor 	nbPacketsSent 	4570
scalar Forest.networkOne[0].applSensor 	nbPacketsReceived 	111662
statistic Forest.networkOne[0].applSensor 	latency
field count 111662
field mean 0.0086112231865589
field stddev 0.0057735565417499
field sum 961.54640345754
field sqrsum 12.002193449381
field min 0.003232
field max 0.074430733882
scalar Forest.networkOne[1].nic.mac 	nbTxFrames 	7887
scalar Forest.networkOne[1].nic.mac 	nbRxFrames 	26190
scalar Forest.networkOne[1].nic.mac 	nbDroppedFrames 	1368
scalar Forest.networkOne[1].nic.mac 	nbMissedAcks 	0
scalar Forest.networkOne[1].nic.mac 	nbRecvdAcks 	0
scalar Forest.networkOne[1].nic.mac 	nbTxAcks 	0
scalar Forest.networkOne[1].nic.mac 	nbDuplicates 	0
scalar Forest.networkOne[1].nic.mac 	meanBackoff 	0.0026949594614516
scalar Forest.networkOne[1].nic.mac 	nbBackoffs 	20351
scalar Forest.networkOne[1].nic.mac 	backoffDurations 	54.845120000001
scalar Forest.networkOne[1].nic.phy 	nbFramesWithInterference 	31981
scalar Forest.networkOne[1].nic.phy 	nbFramesWithoutInterference 	185803
scalar Forest.networkOne[1].nic.phy 	nbFramesWithInterferencePartial 	3894
scalar Forest.networkOne[1].nic.phy 	nbFramesWithoutInterferencePartial 	9
scalar Forest.networkOne[1].nic.phy 	nbFramesWithInterferenceDropped 	3693
scalar Forest.networkOne[1].nic.phy 	nbFramesWithoutInterferenceDropped 	105
scalar Forest.networkOne[1].netwl 	nbDataPacketsForwarded 	4574
scalar Forest.networkOne[1].netwl 	nbDataPacketsReceived 	0
scalar Forest.networkOne[1].netwl 	nbDataPacketsSent 	4681
scalar Forest.networkOne[1].netwl 	nbDuplicatedFloodsReceived 	40676
scalar Forest.networkOne[1].netwl 	nbFloodsSent 	0
scalar Forest.networkOne[1].netwl 	nbPureUnicastSent 	4681
scalar Forest.networkOne[1].netwl 	nbRouteFloodsSent 	0
scalar Forest.networkOne[1].netwl 	nbRouteFloodsReceived 	5
scalar Forest.networkOne[1].netwl 	nbUnicastFloodForwarded 	4569
scalar Forest.networkOne[1].netwl 	nbPureUnicastForwarded 	0
scalar Forest.networkOne[1].netwl 	nbGetRouteFailures 	0
scalar Forest.networkOne[1].netwl 	nbRoutesRecorded 	1
scalar Forest.networkOne[1].netwl 	meanNbHops 	-nan
scalar Forest.networkOne[1].tranl 	nbAggrPktReceived 	0
scalar Forest.networkOne[1].tranl 	"nbAggrPktSentDown " 	0
scalar Forest.networkOne[1].batteryStats 	nominal 	10800000
attr unit  mW-s
scalar Forest.networkOne[1].batteryStats 	total 	283148.99057833
attr unit  mW-s
scalar Forest.networkOne[1].batteryStats 	lifetime 	-1
attr unit  s
scalar Forest.networkOne[1].batteryStats 	"Mean power consumption" 	56.516759445131
attr unit  mW
scalar Forest.networkOne[1].batteryStats 	"num devices" 	2
scalar Forest.networkOne[1].batteryStats 	"physical layer" 	0
scalar Forest.networkOne[1].batteryStats 	"device total (mWs)" 	282526.92660093
scalar Forest.networkOne[1].batteryStats 	account 	0
scalar Forest.networkOne[1].batteryStats 	"energy (mWs)" 	0
scalar Forest.networkOne[1].batteryStats 	"time (s)" 	0
scalar Forest.networkOne[1].batteryStats 	"account 0" 	0
scalar Forest.networkOne[1].batteryStats 	account 	1
scalar Forest.networkOne[1].batteryStats 	"energy (mWs)" 	281895.02424573
scalar Forest.networkOne[1].batteryStats 	"time (s)" 	4998.1387277626
scalar Forest.networkOne[1].batteryStats 	"account 1" 	281895.02424573
scalar Forest.networkOne[1].batteryStats 	account 	2
scalar Forest.networkOne[1].batteryStats 	"energy (mWs)" 	461.08886400002
scalar Forest.networkOne[1].batteryStats 	"time (s)" 	8.83312
scalar Forest.networkOne[1].batteryStats 	"account 2" 	461.08886400002
scalar Forest.networkOne[1].batteryStats 	account 	3
scalar Forest.networkOne[1].batteryStats 	"energy (mWs)" 	170.81349120004
scalar Forest.networkOne[1].batteryStats 	"time (s)" 	3.028608
scalar Forest.networkOne[1].batteryStats 	"account 3" 	170.81349120004
scalar Forest.networkOne[1].batteryStats 	account 	4
scalar Forest.networkOne[1].batteryStats 	"energy (mWs)" 	0
scalar Forest.networkOne[1].batteryStats 	"time (s)" 	0
scalar Forest.networkOne[1].batteryStats 	"account 4" 	0
scalar Forest.networkOne[1].batteryStats 	TemperatureSensorLayer 	1
scalar Forest.networkOne[1].batteryStats 	"device total (mWs)" 	622.06396841031
scalar Forest.networkOne[1].batteryStats 	account 	0
scalar Forest.networkOne[1].batteryStats 	"energy (mWs)" 	622.06396841031
scalar Forest.networkOne[1].batteryStats 	"time (s)" 	5010.0004557626
scalar Forest.networkOne[1].batteryStats 	"account 0" 	622.06396841031
scalar Forest.networkOne[1].applSensor 	"activity duration" 	-1
attr unit  s
scalar Forest.networkOne[1].applSensor 	firstPacketGeneration 	-1
attr unit  s
scalar Forest.networkOne[1].applSensor 	lastPacketReception 	-2
attr unit  s
scalar Forest.networkOne[1].applSensor 	nbPacketsSent 	4681
scalar Forest.networkOne[1].applSensor 	nbPacketsReceived 	0
statistic Forest.networkOne[1].applSensor 	latency
field count 0
field mean 0
field stddev -nan
field sum 0
field sqrsum 0
field min 0
field max 0
scalar Forest.networkOne[2].nic.mac 	nbTxFrames 	7830
scalar Forest.networkOne[2].nic.mac 	nbRxFrames 	29448
scalar Forest.networkOne[2].nic.mac 	nbDroppedFrames 	1298
scalar Forest.networkOne[2].nic.mac 	nbMissedAcks 	0
scalar Forest.networkOne[2].nic.mac 	nbRecvdAcks 	0
scalar Forest.networkOne[2].nic.mac 	nbTxAcks 	0
scalar Forest.networkOne[2].nic.mac 	nbDuplicates 	0
scalar Forest.networkOne[2].nic.mac 	meanBackoff 	0.0026842139123442
scalar Forest.networkOne[2].nic.mac 	nbBackoffs 	19896
scalar Forest.networkOne[2].nic.mac 	backoffDurations 	53.405120000001
scalar Forest.networkOne[2].nic.phy 	nbFramesWithInterference 	34415
scalar Forest.networkOne[2].nic.phy 	nbFramesWithoutInterference 	211418
scalar Forest.networkOne[2].nic.phy 	nbFramesWithInterferencePartial 	5240
scalar Forest.networkOne[2].nic.phy 	nbFramesWithoutInterferencePartial 	3
scalar Forest.networkOne[2].nic.phy 	nbFramesWithInterferenceDropped 	4304
scalar Forest.networkOne[2].nic.phy 	nbFramesWithoutInterferenceDropped 	112
scalar Forest.networkOne[2].netwl 	nbDataPacketsForwarded 	4574
scalar Forest.networkOne[2].netwl 	nbDataPacketsReceived 	0
scalar Forest.networkOne[2].netwl 	nbDataPacketsSent 	4554
scalar Forest.networkOne[2].netwl 	nbDuplicatedFloodsReceived 	44574
scalar Forest.networkOne[2].netwl 	nbFloodsSent 	0
scalar Forest.networkOne[2].netwl 	nbPureUnicastSent 	4554
scalar Forest.networkOne[2].netwl 	nbRouteFloodsSent 	0
scalar Forest.networkOne[2].netwl 	nbRouteFloodsReceived 	5
scalar Forest.networkOne[2].netwl 	nbUnicastFloodForwarded 	4569
scalar Forest.networkOne[2].netwl 	nbPureUnicastForwarded 	0
scalar Forest.networkOne[2].netwl 	nbGetRouteFailures 	0
scalar Forest.networkOne[2].netwl 	nbRoutesRecorded 	1
scalar Forest.networkOne[2].netwl 	meanNbHops 	-nan
scalar Forest.networkOne[2].tranl 	nbAggrPktReceived 	0
scalar Forest.networkOne[2].tranl 	"nbAggrPktSentDown " 	0
scalar Forest.networkOne[2].batteryStats 	nominal 	10800000
attr unit  mW-s
scalar Forest.networkOne[2].batteryStats 	total 	283132.50331268
attr unit  mW-s
scalar Forest.networkOne[2].batteryStats 	lifetime 	-1
attr unit  s
scalar Forest.networkOne[2].batteryStats 	"Mean power consumption" 	56.513468574043
attr unit  mW
scalar Forest.networkOne[2].batteryStats 	"num devices" 	2
scalar Forest.networkOne[2].batteryStats 	"physical layer" 	0
scalar Forest.networkOne[2].batteryStats 	"device total (mWs)" 	282527.19419133
scalar Forest.networkOne[2].batteryStats 	account 	0
scalar Forest.networkOne[2].batteryStats 	"energy (mWs)" 	0
scalar Forest.networkOne[2].batteryStats 	"time (s)" 	0
scalar Forest.networkOne[2].batteryStats 	"account 0" 	0
scalar Forest.networkOne[2].batteryStats 	account 	1
scalar Forest.networkOne[2].batteryStats 	"energy (mWs)" 	281899.85208573
scalar Forest.networkOne[2].batteryStats 	"time (s)" 	4998.2243277626
scalar Forest.networkOne[2].batteryStats 	"account 1" 	281899.85208573
scalar Forest.networkOne[2].batteryStats 	account 	2
scalar Forest.networkOne[2].batteryStats 	"energy (mWs)" 	457.76309760002
scalar Forest.networkOne[2].batteryStats 	"time (s)" 	8.769408
scalar Forest.networkOne[2].batteryStats 	"account 2" 	457.76309760002
scalar Forest.networkOne[2].batteryStats 	account 	3
scalar Forest.networkOne[2].batteryStats 	"energy (mWs)" 	169.57900800004
scalar Forest.networkOne[2].batteryStats 	"time (s)" 	3.00672
scalar Forest.networkOne[2].batteryStats 	"account 3" 	169.57900800004
scalar Forest.networkOne[2].batteryStats 	account 	4
scalar Forest.networkOne[2].batteryStats 	"energy (mWs)" 	0
scalar Forest.networkOne[2].batteryStats 	"time (s)" 	0
scalar Forest.networkOne[2].batteryStats 	"account 4" 	0
scalar Forest.networkOne[2].batteryStats 	TemperatureSensorLayer 	1
scalar Forest.networkOne[2].batteryStats 	"device total (mWs)" 	605.30911241031
scalar Forest.networkOne[2].batteryStats 	account 	0
scalar Forest.networkOne[2].batteryStats 	"energy (mWs)" 	605.30911241031
scalar Forest.networkOne[2].batteryStats 	"time (s)" 	5010.0004557626
scalar Forest.networkOne[2].batteryStats 	"account 0" 	605.30911241031
scalar Forest.networkOne[2].applSensor 	"activity duration" 	-1
attr unit  s
scalar Forest.networkOne[2].applSensor 	firstPacketGeneration 	-1
attr unit  s
scalar Forest.networkOne[2].applSensor 	lastPacketReception 	-2
attr unit  s
scalar Forest.networkOne[2].applSensor 	nbPacketsSent 	4554
scalar Forest.networkOne[2].applSensor 	nbPacketsReceived 	0
statistic Forest.networkOne[2].applSensor 	latency
field count 0
field mean 0
field stddev -nan
field sum 0
field sqrsum 0
field min 0
field max 0
scalar Forest.networkOne[3].nic.mac 	nbTxFrames 	7975
scalar Forest.networkOne[3].nic.mac 	nbRxFrames 	29398
scalar Forest.networkOne[3].nic.mac 	nbDroppedFrames 	1318
scalar Forest.networkOne[3].nic.mac 	nbMissedAcks 	0
scalar Forest.networkOne[3].nic.mac 	nbRecvdAcks 	0
scalar Forest.networkOne[3].nic.mac 	nbTxAcks 	0
scalar Forest.networkOne[3].nic.mac 	nbDuplicates 	0
scalar Forest.networkOne[3].nic.mac 	meanBackoff 	0.0027000108593712
scalar Forest.networkOne[3].nic.mac 	nbBackoffs 	20259
scalar Forest.networkOne[3].nic.mac 	backoffDurations 	54.699520000001
scalar Forest.networkOne[3].nic.phy 	nbFramesWithInterference 	34635
scalar Forest.networkOne[3].nic.phy 	nbFramesWithoutInterference 	226060
scalar Forest.networkOne[3].nic.phy 	nbFramesWithInterferencePartial 	6615
scalar Forest.networkOne[3].nic.phy 	nbFramesWithoutInterferencePartial 	8
scalar Forest.networkOne[3].nic.phy 	nbFramesWithInterferenceDropped 	4869
scalar Forest.networkOne[3].nic.phy 	nbFramesWithoutInterferenceDropped 	119
scalar Forest.networkOne[3].netwl 	nbDataPacketsForwarded 	4574
scalar Forest.networkOne[3].netwl 	nbDataPacketsReceived 	0
scalar Forest.networkOne[3].netwl 	nbDataPacketsSent 	4719
scalar Forest.networkOne[3].netwl 	nbDuplicatedFloodsReceived 	45647
scalar Forest.networkOne[3].netwl 	nbFloodsSent 	0
scalar Forest.networkOne[3].netwl 	nbPureUnicastSent 	4719
scalar Forest.networkOne[3].netwl 	nbRouteFloodsSent 	0
scalar Forest.networkOne[3].netwl 	nbRouteFloodsReceived 	5
scalar Forest.networkOne[3].netwl 	nbUnicastFloodForwarded 	4569
scalar Forest.networkOne[3].netwl 	nbPureUnicastForwarded 	0
scalar Forest.networkOne[3].netwl 	nbGetRouteFailures 	0
scalar Forest.networkOne[3].netwl 	nbRoutesRecorded 	1
scalar Forest.networkOne[3].netwl 	meanNbHops 	-nan
scalar Forest.networkOne[3].tranl 	nbAggrPktReceived 	0
scalar Forest.networkOne[3].tranl 	"nbAggrPktSentDown " 	0
scalar Forest.networkOne[3].batteryStats 	nominal 	10800000
attr unit  mW-s
scalar Forest.networkOne[3].batteryStats 	total 	283153.58962167
attr unit  mW-s
scalar Forest.networkOne[3].batteryStats 	lifetime 	-1
attr unit  s
scalar Forest.networkOne[3].batteryStats 	"Mean power consumption" 	56.51767741777
attr unit  mW
scalar Forest.networkOne[3].batteryStats 	"num devices" 	2
scalar Forest.networkOne[3].batteryStats 	"physical layer" 	0
scalar Forest.networkOne[3].batteryStats 	"device total (mWs)" 	282526.51238013
scalar Forest.networkOne[3].batteryStats 	account 	0
scalar Forest.networkOne[3].batteryStats 	"energy (mWs)" 	0
scalar Forest.networkOne[3].batteryStats 	"time (s)" 	0
scalar Forest.networkOne[3].batteryStats 	"account 0" 	0
scalar Forest.networkOne[3].batteryStats 	account 	1
scalar Forest.networkOne[3].batteryStats 	"energy (mWs)" 	281887.55598333
scalar Forest.networkOne[3].batteryStats 	"time (s)" 	4998.0063117626
scalar Forest.networkOne[3].batteryStats 	"account 1" 	281887.55598333
scalar Forest.networkOne[3].batteryStats 	account 	2
scalar Forest.networkOne[3].batteryStats 	"energy (mWs)" 	466.23703680003
scalar Forest.networkOne[3].batteryStats 	"time (s)" 	8.931744
scalar Forest.networkOne[3].batteryStats 	"account 2" 	466.23703680003
scalar Forest.networkOne[3].batteryStats 	account 	3
scalar Forest.networkOne[3].batteryStats 	"energy (mWs)" 	172.71936000004
scalar Forest.networkOne[3].batteryStats 	"time (s)" 	3.0624
scalar Forest.networkOne[3].batteryStats 	"account 3" 	172.71936000004
scalar Forest.networkOne[3].batteryStats 	account 	4
scalar Forest.networkOne[3].batteryStats 	"energy (mWs)" 	0
scalar Forest.networkOne[3].batteryStats 	"time (s)" 	0
scalar Forest.networkOne[3].batteryStats 	"account 4" 	0
scalar Forest.networkOne[3].batteryStats 	TemperatureSensorLayer 	1
scalar Forest.networkOne[3].batteryStats 	"device total (mWs)" 	627.07723241032
scalar Forest.networkOne[3].batteryStats 	account 	0
scalar Forest.networkOne[3].batteryStats 	"energy (mWs)" 	627.07723241032
scalar Forest.networkOne[3].batteryStats 	"time (s)" 	5010.0004557626
scalar Forest.networkOne[3].batteryStats 	"account 0" 	627.07723241032
scalar Forest.networkOne[3].applSensor 	"activity duration" 	-1
attr unit  s
scalar Forest.networkOne[3].applSensor 	firstPacketGeneration 	-1
attr unit  s
scalar Forest.networkOne[3].applSensor 	lastPacketReception 	-2
attr unit  s
scalar Forest.networkOne[3].applSensor 	nbPacketsSent 	4719
scalar Forest.networkOne[3].applSensor 	nbPacketsReceived 	0
statistic Forest.networkOne[3].applSensor 	latency
field count 0
field mean 0
field stddev -nan
field sum 0
field sqrsum 0
field min 0
field max 0
scalar Forest.networkOne[4].nic.mac 	nbTxFrames 	7956
scalar Forest.networkOne[4].nic.mac 	nbRxFrames 	28618
scalar Forest.networkOne[4].nic.mac 	nbDroppedFrames 	1300
scalar Forest.networkOne[4].nic.mac 	nbMissedAcks 	0
scalar Forest.networkOne[4].nic.mac 	nbRecvdAcks 	0
scalar Forest.networkOne[4].nic.mac 	nbTxAcks 	0
scalar Forest.networkOne[4].nic.mac 	nbDuplicates 	0
scalar Forest.networkOne[4].nic.mac 	meanBackoff 	0.0026960007853146
scalar Forest.networkOne[4].nic.mac 	nbBackoffs 	20374
scalar Forest.networkOne[4].nic.mac 	backoffDurations 	54.928320000001
scalar Forest.networkOne[4].nic.phy 	nbFramesWithInterference 	33926
scalar Forest.networkOne[4].nic.phy 	nbFramesWithoutInterference 	227097
scalar Forest.networkOne[4].nic.phy 	nbFramesWithInterferencePartial 	7746
scalar Forest.networkOne[4].nic.phy 	nbFramesWithoutInterferencePartial 	6
scalar Forest.networkOne[4].nic.phy 	nbFramesWithInterferenceDropped 	5190
scalar Forest.networkOne[4].nic.phy 	nbFramesWithoutInterferenceDropped 	117
scalar Forest.networkOne[4].netwl 	nbDataPacketsForwarded 	4574
scalar Forest.networkOne[4].netwl 	nbDataPacketsReceived 	0
scalar Forest.networkOne[4].netwl 	nbDataPacketsSent 	4682
scalar Forest.networkOne[4].netwl 	nbDuplicatedFloodsReceived 	45252
scalar Forest.networkOne[4].netwl 	nbFloodsSent 	0
scalar Forest.networkOne[4].netwl 	nbPureUnicastSent 	4682
scalar Forest.networkOne[4].netwl 	nbRouteFloodsSent 	0
scalar Forest.networkOne[4].netwl 	nbRouteFloodsReceived 	5
scalar Forest.networkOne[4].netwl 	nbUnicastFloodForwarded 	4569
scalar Forest.networkOne[4].netwl 	nbPureUnicastForwarded 	0
scalar Forest.networkOne[4].netwl 	nbGetRouteFailures 	0
scalar Forest.networkOne[4].netwl 	nbRoutesRecorded 	1
scalar Forest.networkOne[4].netwl 	meanNbHops 	-nan
scalar Forest.networkOne[4].tranl 	nbAggrPktReceived 	0
scalar Forest.networkOne[4].tranl 	"nbAggrPktSentDown " 	0
scalar Forest.networkOne[4].batteryStats 	nominal 	10800000
attr unit  mW-s
scalar Forest.networkOne[4].batteryStats 	total 	283148.79979708
attr unit  mW-s
scalar Forest.networkOne[4].batteryStats 	lifetime 	-1
attr unit  s
scalar Forest.networkOne[4].batteryStats 	"Mean power consumption" 	56.516721365045
attr unit  mW
scalar Forest.networkOne[4].batteryStats 	"num devices" 	2
scalar Forest.networkOne[4].batteryStats 	"physical layer" 	0
scalar Forest.networkOne[4].batteryStats 	"device total (mWs)" 	282526.60202493
scalar Forest.networkOne[4].batteryStats 	account 	0
scalar Forest.networkOne[4].batteryStats 	"energy (mWs)" 	0
scalar Forest.networkOne[4].batteryStats 	"time (s)" 	0
scalar Forest.networkOne[4].batteryStats 	"account 0" 	0
scalar Forest.networkOne[4].batteryStats 	account 	1
scalar Forest.networkOne[4].batteryStats 	"energy (mWs)" 	281889.17127933
scalar Forest.networkOne[4].batteryStats 	"time (s)" 	4998.0349517626
scalar Forest.networkOne[4].batteryStats 	"account 1" 	281889.17127933
scalar Forest.networkOne[4].batteryStats 	account 	2
scalar Forest.networkOne[4].batteryStats 	"energy (mWs)" 	465.12288000003
scalar Forest.networkOne[4].batteryStats 	"time (s)" 	8.9104
scalar Forest.networkOne[4].batteryStats 	"account 2" 	465.12288000003
scalar Forest.networkOne[4].batteryStats 	account 	3
scalar Forest.networkOne[4].batteryStats 	"energy (mWs)" 	172.30786560004
scalar Forest.networkOne[4].batteryStats 	"time (s)" 	3.055104
scalar Forest.networkOne[4].batteryStats 	"account 3" 	172.30786560004
scalar Forest.networkOne[4].batteryStats 	account 	4
scalar Forest.networkOne[4].batteryStats 	"energy (mWs)" 	0
scalar Forest.networkOne[4].batteryStats 	"time (s)" 	0
scalar Forest.networkOne[4].batteryStats 	"account 4" 	0
scalar Forest.networkOne[4].batteryStats 	TemperatureSensorLayer 	1
scalar Forest.networkOne[4].batteryStats 	"device total (mWs)" 	622.19776345124
scalar Forest.networkOne[4].batteryStats 	account 	0
scalar Forest.networkOne[4].batteryStats 	"energy (mWs)" 	622.19776345124
scalar Forest.networkOne[4].batteryStats 	"time (s)" 	5010.0004557626
scalar Forest.networkOne[4].batteryStats 	"account 0" 	622.19776345124
scalar Forest.networkOne[4].applSensor 	"activity duration" 	-1
attr unit  s
scalar Forest.networkOne[4].applSensor 	firstPacketGeneration 	-1
attr unit  s
scalar Forest.networkOne[4].applSensor 	lastPacketReception 	-2
attr unit  s
scalar Forest.networkOne[4].applSensor 	nbPacketsSent 	4682
scalar Forest.networkOne[4].applSensor 	nbPacketsReceived 	0
statistic Forest.networkOne[4].applSensor 	latency
field count 0
field mean 0
field stddev -nan
field sum 0
field sqrsum 0
field min 0
field max 0
scalar Forest.networkOne[5].nic.mac 	nbTxFrames 	7740
scalar Forest.networkOne[5].nic.mac 	nbRxFrames 	27723
scalar Forest.networkOne[5].nic.mac 	nbDroppedFrames 	1323
scalar Forest.networkOne[5].nic.mac 	nbMissedAcks 	0
scalar Forest.networkOne[5].nic.mac 	nbRecvdAcks 	0
scalar Forest.networkOne[5].nic.mac 	nbTxAcks 	0
scalar Forest.networkOne[5].nic.mac 	nbDuplicates 	0
scalar Forest.networkOne[5].nic.mac 	meanBackoff 	0.0027139850812627
scalar Forest.networkOne[5].nic.mac 	nbBackoffs 	20243
scalar Forest.networkOne[5].nic.mac 	backoffDurations 	54.939200000001
scalar Forest.networkOne[5].nic.phy 	nbFramesWithInterference 	32341
scalar Forest.networkOne[5].nic.phy 	nbFramesWithoutInterference 	216469
scalar Forest.networkOne[5].nic.phy 	nbFramesWithInterferencePartial 	8040
scalar Forest.networkOne[5].nic.phy 	nbFramesWithoutInterferencePartial 	7
scalar Forest.networkOne[5].nic.phy 	nbFramesWithInterferenceDropped 	5016
scalar Forest.networkOne[5].nic.phy 	nbFramesWithoutInterferenceDropped 	131
scalar Forest.networkOne[5].netwl 	nbDataPacketsForwarded 	4574
scalar Forest.networkOne[5].netwl 	nbDataPacketsReceived 	0
scalar Forest.networkOne[5].netwl 	nbDataPacketsSent 	4489
scalar Forest.networkOne[5].netwl 	nbDuplicatedFloodsReceived 	44372
scalar Forest.networkOne[5].netwl 	nbFloodsSent 	0
scalar Forest.networkOne[5].netwl 	nbPureUnicastSent 	4489
scalar Forest.networkOne[5].netwl 	nbRouteFloodsSent 	0
scalar Forest.networkOne[5].netwl 	nbRouteFloodsReceived 	5
scalar Forest.networkOne[5].netwl 	nbUnicastFloodForwarded 	4569
scalar Forest.networkOne[5].netwl 	nbPureUnicastForwarded 	0
scalar Forest.networkOne[5].netwl 	nbGetRouteFailures 	0
scalar Forest.networkOne[5].netwl 	nbRoutesRecorded 	1
scalar Forest.networkOne[5].netwl 	meanNbHops 	-nan
scalar Forest.networkOne[5].tranl 	nbAggrPktReceived 	0
scalar Forest.networkOne[5].tranl 	"nbAggrPktSentDown " 	0
scalar Forest.networkOne[5].batteryStats 	nominal 	10800000
attr unit  mW-s
scalar Forest.networkOne[5].batteryStats 	total 	283124.3518901
attr unit  mW-s
scalar Forest.networkOne[5].batteryStats 	lifetime 	-1
attr unit  s
scalar Forest.networkOne[5].batteryStats 	"Mean power consumption" 	56.511841543736
attr unit  mW
scalar Forest.networkOne[5].batteryStats 	"num devices" 	2
scalar Forest.networkOne[5].batteryStats 	"physical layer" 	0
scalar Forest.networkOne[5].batteryStats 	"device total (mWs)" 	282527.61808893
scalar Forest.networkOne[5].batteryStats 	account 	0
scalar Forest.networkOne[5].batteryStats 	"energy (mWs)" 	0
scalar Forest.networkOne[5].batteryStats 	"time (s)" 	0
scalar Forest.networkOne[5].batteryStats 	"account 0" 	0
scalar Forest.networkOne[5].batteryStats 	account 	1
scalar Forest.networkOne[5].batteryStats 	"energy (mWs)" 	281907.49360893
scalar Forest.networkOne[5].batteryStats 	"time (s)" 	4998.3598157626
scalar Forest.networkOne[5].batteryStats 	"account 1" 	281907.49360893
scalar Forest.networkOne[5].batteryStats 	account 	2
scalar Forest.networkOne[5].batteryStats 	"energy (mWs)" 	452.49465600002
scalar Forest.networkOne[5].batteryStats 	"time (s)" 	8.66848
scalar Forest.networkOne[5].batteryStats 	"account 2" 	452.49465600002
scalar Forest.networkOne[5].batteryStats 	account 	3
scalar Forest.networkOne[5].batteryStats 	"energy (mWs)" 	167.62982400003
scalar Forest.networkOne[5].batteryStats 	"time (s)" 	2.97216
scalar Forest.networkOne[5].batteryStats 	"account 3" 	167.62982400003
scalar Forest.networkOne[5].batteryStats 	account 	4
scalar Forest.networkOne[5].batteryStats 	"energy (mWs)" 	0
scalar Forest.networkOne[5].batteryStats 	"time (s)" 	0
scalar Forest.networkOne[5].batteryStats 	"account 4" 	0
scalar Forest.networkOne[5].batteryStats 	TemperatureSensorLayer 	1
scalar Forest.networkOne[5].batteryStats 	"device total (mWs)" 	596.73379241029
scalar Forest.networkOne[5].batteryStats 	account 	0
scalar Forest.networkOne[5].batteryStats 	"energy (mWs)" 	596.73379241029
scalar Forest.networkOne[5].batteryStats 	"time (s)" 	5010.0004557626
scalar Forest.networkOne[5].batteryStats 	"account 0" 	596.73379241029
scalar Forest.networkOne[5].applSensor 	"activity duration" 	-1
attr unit  s
scalar Forest.networkOne[5].applSensor 	firstPacketGeneration 	-1
attr unit  s
scalar Forest.networkOne[5].applSensor 	lastPacketReception 	-2
attr unit  s
scalar Forest.networkOne[5].applSensor 	nbPacketsSent 	4489
scalar Forest.networkOne[5].applSensor 	nbPacketsReceived 	0
statistic Forest.networkOne[5].applSensor 	latency
field count 0
field mean 0
field stddev -nan
field sum 0
field sqrsum 0
field min 0
field max 0
scalar Forest.networkOne[6].nic.mac 	nbTxFrames 	8109
scalar Forest.networkOne[6].nic.mac 	nbRxFrames 	26220
scalar Forest.networkOne[6].nic.mac 	nbDroppedFrames 	1214
scalar Forest.networkOne[6].nic.mac 	nbMissedAcks 	0
scalar Forest.networkOne[6].nic.mac 	nbRecvdAcks 	0
scalar Forest.networkOne[6].nic.mac 	nbTxAcks 	0
scalar Forest.networkOne[6].nic.mac 	nbDuplicates 	0
scalar Forest.networkOne[6].nic.mac 	meanBackoff 	0.002695010964378
scalar Forest.networkOne[6].nic.mac 	nbBackoffs 	20521
scalar Forest.networkOne[6].nic.mac 	backoffDurations 	55.30432
scalar Forest.networkOne[6].nic.phy 	nbFramesWithInterference 	30068
scalar Forest.networkOne[6].nic.phy 	nbFramesWithoutInterference 	196146
scalar Forest.networkOne[6].nic.phy 	nbFramesWithInterferencePartial 	7526
scalar Forest.networkOne[6].nic.phy 	nbFramesWithoutInterferencePartial 	8
scalar Forest.networkOne[6].nic.phy 	nbFramesWithInterferenceDropped 	4441
scalar Forest.networkOne[6].nic.phy 	nbFramesWithoutInterferenceDropped 	108
scalar Forest.networkOne[6].netwl 	nbDataPacketsForwarded 	4574
scalar Forest.networkOne[6].netwl 	nbDataPacketsReceived 	0
scalar Forest.networkOne[6].netwl 	nbDataPacketsSent 	4749
scalar Forest.networkOne[6].netwl 	nbDuplicatedFloodsReceived 	42021
scalar Forest.networkOne[6].netwl 	nbFloodsSent 	0
scalar Forest.networkOne[6].netwl 	nbPureUnicastSent 	4749
scalar Forest.networkOne[6].netwl 	nbRouteFloodsSent 	0
scalar Forest.networkOne[6].netwl 	nbRouteFloodsReceived 	5
scalar Forest.networkOne[6].netwl 	nbUnicastFloodForwarded 	4569
scalar Forest.networkOne[6].netwl 	nbPureUnicastForwarded 	0
scalar Forest.networkOne[6].netwl 	nbGetRouteFailures 	0
scalar Forest.networkOne[6].netwl 	nbRoutesRecorded 	1
scalar Forest.networkOne[6].netwl 	meanNbHops 	-nan
scalar Forest.networkOne[6].tranl 	nbAggrPktReceived 	0
scalar Forest.networkOne[6].tranl 	"nbAggrPktSentDown " 	0
scalar Forest.networkOne[6].batteryStats 	nominal 	10800000
attr unit  mW-s
scalar Forest.networkOne[6].batteryStats 	total 	283156.91712571
attr unit  mW-s
scalar Forest.networkOne[6].batteryStats 	lifetime 	-1
attr unit  s
scalar Forest.networkOne[6].batteryStats 	"Mean power consumption" 	56.518341590174
attr unit  mW
scalar Forest.networkOne[6].batteryStats 	"num devices" 	2
scalar Forest.networkOne[6].batteryStats 	"physical layer" 	0
scalar Forest.networkOne[6].batteryStats 	"device total (mWs)" 	282525.88204413
scalar Forest.networkOne[6].batteryStats 	account 	0
scalar Forest.networkOne[6].batteryStats 	"energy (mWs)" 	0
scalar Forest.networkOne[6].batteryStats 	"time (s)" 	0
scalar Forest.networkOne[6].batteryStats 	"account 0" 	0
scalar Forest.networkOne[6].batteryStats 	account 	1
scalar Forest.networkOne[6].batteryStats 	"energy (mWs)" 	281876.18935293
scalar Forest.networkOne[6].batteryStats 	"time (s)" 	4997.8047757626
scalar Forest.networkOne[6].batteryStats 	"account 1" 	281876.18935293
scalar Forest.networkOne[6].batteryStats 	account 	2
scalar Forest.networkOne[6].batteryStats 	"energy (mWs)" 	474.07121280003
scalar Forest.networkOne[6].batteryStats 	"time (s)" 	9.081824
scalar Forest.networkOne[6].batteryStats 	"account 2" 	474.07121280003
scalar Forest.networkOne[6].batteryStats 	account 	3
scalar Forest.networkOne[6].batteryStats 	"energy (mWs)" 	175.62147840004
scalar Forest.networkOne[6].batteryStats 	"time (s)" 	3.113856
scalar Forest.networkOne[6].batteryStats 	"account 3" 	175.62147840004
scalar Forest.networkOne[6].batteryStats 	account 	4
scalar Forest.networkOne[6].batteryStats 	"energy (mWs)" 	0
scalar Forest.networkOne[6].batteryStats 	"time (s)" 	0
scalar Forest.networkOne[6].batteryStats 	"account 4" 	0
scalar Forest.networkOne[6].batteryStats 	TemperatureSensorLayer 	1
scalar Forest.networkOne[6].batteryStats 	"device total (mWs)" 	631.03507241032
scalar Forest.networkOne[6].batteryStats 	account 	0
scalar Forest.networkOne[6].batteryStats 	"energy (mWs)" 	631.03507241032
scalar Forest.networkOne[6].batteryStats 	"time (s)" 	5010.0004557626
scalar Forest.networkOne[6].batteryStats 	"account 0" 	631.03507241032
scalar Forest.networkOne[6].applSensor 	"activity duration" 	-1
attr unit  s
scalar Forest.networkOne[6].applSensor 	firstPacketGeneration 	-1
attr unit  s
scalar Forest.networkOne[6].applSensor 	lastPacketReception 	-2
attr unit  s
scalar Forest.networkOne[6].applSensor 	nbPacketsSent 	4749
scalar Forest.networkOne[6].applSensor 	nbPacketsReceived 	0
statistic Forest.networkOne[6].applSensor 	latency
field count 0
field mean 0
field stddev -nan
field sum 0
field sqrsum 0
field min 0
field max 0
scalar Forest.networkOne[7].nic.mac 	nbTxFrames 	12196
scalar Forest.networkOne[7].nic.mac 	nbRxFrames 	28127
scalar Forest.networkOne[7].nic.mac 	nbDroppedFrames 	1199
scalar Forest.networkOne[7].nic.mac 	nbMissedAcks 	0
scalar Forest.networkOne[7].nic.mac 	nbRecvdAcks 	0
scalar Forest.networkOne[7].nic.mac 	nbTxAcks 	0
scalar Forest.networkOne[7].nic.mac 	nbDuplicates 	0
scalar Forest.networkOne[7].nic.mac 	meanBackoff 	0.002427433494197
scalar Forest.networkOne[7].nic.mac 	nbBackoffs 	25073
scalar Forest.networkOne[7].nic.mac 	backoffDurations 	60.863040000001
scalar Forest.networkOne[7].nic.phy 	nbFramesWithInterference 	27333
scalar Forest.networkOne[7].nic.phy 	nbFramesWithoutInterference 	164581
scalar Forest.networkOne[7].nic.phy 	nbFramesWithInterferencePartial 	6220
scalar Forest.networkOne[7].nic.phy 	nbFramesWithoutInterferencePartial 	4
scalar Forest.networkOne[7].nic.phy 	nbFramesWithInterferenceDropped 	3612
scalar Forest.networkOne[7].nic.phy 	nbFramesWithoutInterferenceDropped 	131
scalar Forest.networkOne[7].netwl 	nbDataPacketsForwarded 	8640
scalar Forest.networkOne[7].netwl 	nbDataPacketsReceived 	0
scalar Forest.networkOne[7].netwl 	nbDataPacketsSent 	4755
scalar Forest.networkOne[7].netwl 	nbDuplicatedFloodsReceived 	38726
scalar Forest.networkOne[7].netwl 	nbFloodsSent 	0
scalar Forest.networkOne[7].netwl 	nbPureUnicastSent 	4755
scalar Forest.networkOne[7].netwl 	nbRouteFloodsSent 	0
scalar Forest.networkOne[7].netwl 	nbRouteFloodsReceived 	5
scalar Forest.networkOne[7].netwl 	nbUnicastFloodForwarded 	4569
scalar Forest.networkOne[7].netwl 	nbPureUnicastForwarded 	4066
scalar Forest.networkOne[7].netwl 	nbGetRouteFailures 	0
scalar Forest.networkOne[7].netwl 	nbRoutesRecorded 	1
scalar Forest.networkOne[7].netwl 	meanNbHops 	-nan
scalar Forest.networkOne[7].tranl 	nbAggrPktReceived 	0
scalar Forest.networkOne[7].tranl 	"nbAggrPktSentDown " 	0
scalar Forest.networkOne[7].batteryStats 	nominal 	10800000
attr unit  mW-s
scalar Forest.networkOne[7].batteryStats 	total 	283138.48318322
attr unit  mW-s
scalar Forest.networkOne[7].batteryStats 	lifetime 	-1
attr unit  s
scalar Forest.networkOne[7].batteryStats 	"Mean power consumption" 	56.514662160869
attr unit  mW
scalar Forest.networkOne[7].batteryStats 	"num devices" 	2
scalar Forest.networkOne[7].batteryStats 	"physical layer" 	0
scalar Forest.networkOne[7].batteryStats 	"device total (mWs)" 	282506.6565273
scalar Forest.networkOne[7].batteryStats 	account 	0
scalar Forest.networkOne[7].batteryStats 	"energy (mWs)" 	0
scalar Forest.networkOne[7].batteryStats 	"time (s)" 	0
scalar Forest.networkOne[7].batteryStats 	"account 0" 	0
scalar Forest.networkOne[7].batteryStats 	account 	1
scalar Forest.networkOne[7].batteryStats 	"energy (mWs)" 	281529.5035161
scalar Forest.networkOne[7].batteryStats 	"time (s)" 	4991.6578637626
scalar Forest.networkOne[7].batteryStats 	"account 1" 	281529.5035161
scalar Forest.networkOne[7].batteryStats 	account 	2
scalar Forest.networkOne[7].batteryStats 	"energy (mWs)" 	713.01692159989
scalar Forest.networkOne[7].batteryStats 	"time (s)" 	13.659328
scalar Forest.networkOne[7].batteryStats 	"account 2" 	713.01692159989
scalar Forest.networkOne[7].batteryStats 	account 	3
scalar Forest.networkOne[7].batteryStats 	"energy (mWs)" 	264.13608960015
scalar Forest.networkOne[7].batteryStats 	"time (s)" 	4.683264
scalar Forest.networkOne[7].batteryStats 	"account 3" 	264.13608960015
scalar Forest.networkOne[7].batteryStats 	account 	4
scalar Forest.networkOne[7].batteryStats 	"energy (mWs)" 	0
scalar Forest.networkOne[7].batteryStats 	"time (s)" 	0
scalar Forest.networkOne[7].batteryStats 	"account 4" 	0
scalar Forest.networkOne[7].batteryStats 	TemperatureSensorLayer 	1
scalar Forest.networkOne[7].batteryStats 	"device total (mWs)" 	631.82664041039
scalar Forest.networkOne[7].batteryStats 	account 	0
scalar Forest.networkOne[7].batteryStats 	"energy (mWs)" 	631.82664041039
scalar Forest.networkOne[7].batteryStats 	"time (s)" 	5010.0004557626
scalar Forest.networkOne[7].batteryStats 	"account 0" 	631.82664041039
scalar Forest.networkOne[7].applSensor 	"activity duration" 	-1
attr unit  s
scalar Forest.networkOne[7].applSensor 	firstPacketGeneration 	-1
attr unit  s
scalar Forest.networkOne[7].applSensor 	lastPacketReception 	-2
attr unit  s
scalar Forest.networkOne[7].applSensor 	nbPacketsSent 	4755
scalar Forest.networkOne[7].applSensor 	nbPacketsReceived 	0
statistic Forest.networkOne[7].applSensor 	latency
field count 0
field mean 0
field stddev -nan
field sum 0
field sqrsum 0
field min 0
field max 0
scalar Forest.networkOne[8].nic.mac 	nbTxFrames 	8238
scalar Forest.networkOne[8].nic.mac 	nbRxFrames 	21278
scalar Forest.networkOne[8].nic.mac 	nbDroppedFrames 	1058
scalar Forest.networkOne[8].nic.mac 	nbMissedAcks 	0
scalar Forest.networkOne[8].nic.mac 	nbRecvdAcks 	0
scalar Forest.networkOne[8].nic.mac 	nbTxAcks 	0
scalar Forest.networkOne[8].nic.mac 	nbDuplicates 	0
scalar Forest.networkOne[8].nic.mac 	meanBackoff 	0.0026190459045905
scalar Forest.networkOne[8].nic.mac 	nbBackoffs 	19998
scalar Forest.networkOne[8].nic.mac 	backoffDurations 	52.375680000001
scalar Forest.networkOne[8].nic.phy 	nbFramesWithInterference 	24172
scalar Forest.networkOne[8].nic.phy 	nbFramesWithoutInterference 	136611
scalar Forest.networkOne[8].nic.phy 	nbFramesWithInterferencePartial 	4414
scalar Forest.networkOne[8].nic.phy 	nbFramesWithoutInterferencePartial 	9
scalar Forest.networkOne[8].nic.phy 	nbFramesWithInterferenceDropped 	3072
scalar Forest.networkOne[8].nic.phy 	nbFramesWithoutInterferenceDropped 	102
scalar Forest.networkOne[8].netwl 	nbDataPacketsForwarded 	4574
scalar Forest.networkOne[8].netwl 	nbDataPacketsReceived 	0
scalar Forest.networkOne[8].netwl 	nbDataPacketsSent 	4722
scalar Forest.networkOne[8].netwl 	nbDuplicatedFloodsReceived 	33473
scalar Forest.networkOne[8].netwl 	nbFloodsSent 	0
scalar Forest.networkOne[8].netwl 	nbPureUnicastSent 	4722
scalar Forest.networkOne[8].netwl 	nbRouteFloodsSent 	0
scalar Forest.networkOne[8].netwl 	nbRouteFloodsReceived 	5
scalar Forest.networkOne[8].netwl 	nbUnicastFloodForwarded 	4569
scalar Forest.networkOne[8].netwl 	nbPureUnicastForwarded 	0
scalar Forest.networkOne[8].netwl 	nbGetRouteFailures 	0
scalar Forest.networkOne[8].netwl 	nbRoutesRecorded 	1
scalar Forest.networkOne[8].netwl 	meanNbHops 	-nan
scalar Forest.networkOne[8].tranl 	nbAggrPktReceived 	0
scalar Forest.networkOne[8].tranl 	"nbAggrPktSentDown " 	0
scalar Forest.networkOne[8].batteryStats 	nominal 	10800000
attr unit  mW-s
scalar Forest.networkOne[8].batteryStats 	total 	283152.74825395
attr unit  mW-s
scalar Forest.networkOne[8].batteryStats 	lifetime 	-1
attr unit  s
scalar Forest.networkOne[8].batteryStats 	"Mean power consumption" 	56.517509480117
attr unit  mW
scalar Forest.networkOne[8].batteryStats 	"num devices" 	2
scalar Forest.networkOne[8].batteryStats 	"physical layer" 	0
scalar Forest.networkOne[8].batteryStats 	"device total (mWs)" 	282525.27522813
scalar Forest.networkOne[8].batteryStats 	account 	0
scalar Forest.networkOne[8].batteryStats 	"energy (mWs)" 	0
scalar Forest.networkOne[8].batteryStats 	"time (s)" 	0
scalar Forest.networkOne[8].batteryStats 	"account 0" 	0
scalar Forest.networkOne[8].batteryStats 	account 	1
scalar Forest.networkOne[8].batteryStats 	"energy (mWs)" 	281865.24685053
scalar Forest.networkOne[8].batteryStats 	"time (s)" 	4997.6107597626
scalar Forest.networkOne[8].batteryStats 	"account 1" 	281865.24685053
scalar Forest.networkOne[8].batteryStats 	account 	2
scalar Forest.networkOne[8].batteryStats 	"energy (mWs)" 	481.61306880003
scalar Forest.networkOne[8].batteryStats 	"time (s)" 	9.226304
scalar Forest.networkOne[8].batteryStats 	"account 2" 	481.61306880003
scalar Forest.networkOne[8].batteryStats 	account 	3
scalar Forest.networkOne[8].batteryStats 	"energy (mWs)" 	178.41530880005
scalar Forest.networkOne[8].batteryStats 	"time (s)" 	3.163392
scalar Forest.networkOne[8].batteryStats 	"account 3" 	178.41530880005
scalar Forest.networkOne[8].batteryStats 	account 	4
scalar Forest.networkOne[8].batteryStats 	"energy (mWs)" 	0
scalar Forest.networkOne[8].batteryStats 	"time (s)" 	0
scalar Forest.networkOne[8].batteryStats 	"account 4" 	0
scalar Forest.networkOne[8].batteryStats 	TemperatureSensorLayer 	1
scalar Forest.networkOne[8].batteryStats 	"device total (mWs)" 	627.47301641032
scalar Forest.networkOne[8].batteryStats 	account 	0
scalar Forest.networkOne[8].batteryStats 	"energy (mWs)" 	627.47301641032
scalar Forest.networkOne[8].batteryStats 	"time (s)" 	5010.0004557626
scalar Forest.networkOne[8].batteryStats 	"account 0" 	627.47301641032
scalar Forest.networkOne[8].applSensor 	"activity duration" 	-1
attr unit  s
scalar Forest.networkOne[8].applSensor 	firstPacketGeneration 	-1
attr unit  s
scalar Forest.networkOne[8].applSensor 	lastPacketReception 	-2
attr unit  s
scalar Forest.networkOne[8].applSensor 	nbPacketsSent 	4722
scalar Forest.networkOne[8].applSensor 	nbPacketsReceived 	0
statistic Forest.networkOne[8].applSensor 	latency
field count 0
field mean 0
field stddev -nan
field sum 0
field sqrsum 0
field min 0
field max 0
scalar Forest.networkOne[9].nic.mac 	nbTxFrames 	7904
scalar Forest.networkOne[9].nic.mac 	nbRxFrames 	26450
scalar Forest.networkOne[9].nic.mac 	nbDroppedFrames 	1333
scalar Forest.networkOne[9].nic.mac 	nbMissedAcks 	0
scalar Forest.networkOne[9].nic.mac 	nbRecvdAcks 	0
scalar Forest.networkOne[9].nic.mac 	nbTxAcks 	0
scalar Forest.networkOne[9].nic.mac 	nbDuplicates 	0
scalar Forest.networkOne[9].nic.mac 	meanBackoff 	0.0026895355421986
scalar Forest.networkOne[9].nic.mac 	nbBackoffs 	20131
scalar Forest.networkOne[9].nic.mac 	backoffDurations 	54.143040000001
scalar Forest.networkOne[9].nic.phy 	nbFramesWithInterference 	31263
scalar Forest.networkOne[9].nic.phy 	nbFramesWithoutInterference 	188706
scalar Forest.networkOne[9].nic.phy 	nbFramesWithInterferencePartial 	4250
scalar Forest.networkOne[9].nic.phy 	nbFramesWithoutInterferencePartial 	8
scalar Forest.networkOne[9].nic.phy 	nbFramesWithInterferenceDropped 	3756
scalar Forest.networkOne[9].nic.phy 	nbFramesWithoutInterferenceDropped 	114
scalar Forest.networkOne[9].netwl 	nbDataPacketsForwarded 	4574
scalar Forest.networkOne[9].netwl 	nbDataPacketsReceived 	0
scalar Forest.networkOne[9].netwl 	nbDataPacketsSent 	4663
scalar Forest.networkOne[9].netwl 	nbDuplicatedFloodsReceived 	40351
scalar Forest.networkOne[9].netwl 	nbFloodsSent 	0
scalar Forest.networkOne[9].netwl 	nbPureUnicastSent 	4663
scalar Forest.networkOne[9].netwl 	nbRouteFloodsSent 	0
scalar Forest.networkOne[9].netwl 	nbRouteFloodsReceived 	5
scalar Forest.networkOne[9].netwl 	nbUnicastFloodForwarded 	4569
scalar Forest.networkOne[9].netwl 	nbPureUnicastForwarded 	0
scalar Forest.networkOne[9].netwl 	nbGetRouteFailures 	0
scalar Forest.networkOne[9].netwl 	nbRoutesRecorded 	1
scalar Forest.networkOne[9].netwl 	meanNbHops 	-nan
scalar Forest.networkOne[9].tranl 	nbAggrPktReceived 	0
scalar Forest.networkOne[9].tranl 	"nbAggrPktSentDown " 	0
scalar Forest.networkOne[9].batteryStats 	nominal 	10800000
attr unit  mW-s
scalar Forest.networkOne[9].batteryStats 	total 	283146.5356372
attr unit  mW-s
scalar Forest.networkOne[9].batteryStats 	lifetime 	-1
attr unit  s
scalar Forest.networkOne[9].batteryStats 	"Mean power consumption" 	56.516269436965
attr unit  mW
scalar Forest.networkOne[9].batteryStats 	"num devices" 	2
scalar Forest.networkOne[9].batteryStats 	"physical layer" 	0
scalar Forest.networkOne[9].batteryStats 	"device total (mWs)" 	282526.84636413
scalar Forest.networkOne[9].batteryStats 	account 	0
scalar Forest.networkOne[9].batteryStats 	"energy (mWs)" 	0
scalar Forest.networkOne[9].batteryStats 	"time (s)" 	0
scalar Forest.networkOne[9].batteryStats 	"account 0" 	0
scalar Forest.networkOne[9].batteryStats 	account 	1
scalar Forest.networkOne[9].batteryStats 	"energy (mWs)" 	281893.57860093
scalar Forest.networkOne[9].batteryStats 	"time (s)" 	4998.1130957626
scalar Forest.networkOne[9].batteryStats 	"account 1" 	281893.57860093
scalar Forest.networkOne[9].batteryStats 	account 	2
scalar Forest.networkOne[9].batteryStats 	"energy (mWs)" 	462.08609280002
scalar Forest.networkOne[9].batteryStats 	"time (s)" 	8.852224
scalar Forest.networkOne[9].batteryStats 	"account 2" 	462.08609280002
scalar Forest.networkOne[9].batteryStats 	account 	3
scalar Forest.networkOne[9].batteryStats 	"energy (mWs)" 	171.18167040004
scalar Forest.networkOne[9].batteryStats 	"time (s)" 	3.035136
scalar Forest.networkOne[9].batteryStats 	"account 3" 	171.18167040004
scalar Forest.networkOne[9].batteryStats 	account 	4
scalar Forest.networkOne[9].batteryStats 	"energy (mWs)" 	0
scalar Forest.networkOne[9].batteryStats 	"time (s)" 	0
scalar Forest.networkOne[9].batteryStats 	"account 4" 	0
scalar Forest.networkOne[9].batteryStats 	TemperatureSensorLayer 	1
scalar Forest.networkOne[9].batteryStats 	"device total (mWs)" 	619.68926441032
scalar Forest.networkOne[9].batteryStats 	account 	0
scalar Forest.networkOne[9].batteryStats 	"energy (mWs)" 	619.68926441032
scalar Forest.networkOne[9].batteryStats 	"time (s)" 	5010.0004557626
scalar Forest.networkOne[9].batteryStats 	"account 0" 	619.68926441032
scalar Forest.networkOne[9].applSensor 	"activity duration" 	-1
attr unit  s
scalar Forest.networkOne[9].applSensor 	firstPacketGeneration 	-1
attr unit  s
scalar Forest.networkOne[9].applSensor 	lastPacketReception 	-2
attr unit  s
scalar Forest.networkOne[9].applSensor 	nbPacketsSent 	4663
scalar Forest.networkOne[9].applSensor 	nbPacketsReceived 	0
statistic Forest.networkOne[9].applSensor 	latency
field count 0
field mean 0
field stddev -nan
field sum 0
field sqrsum 0
field min 0
field max 0
scalar Forest.networkOne[10].nic.mac 	nbTxFrames 	7882
scalar Forest.networkOne[10].nic.mac 	nbRxFrames 	30660
scalar Forest.networkOne[10].nic.mac 	nbDroppedFrames 	1283
scalar Forest.networkOne[10].nic.mac 	nbMissedAcks 	0
scalar Forest.networkOne[10].nic.mac 	nbRecvdAcks 	0
scalar Forest.networkOne[10].nic.mac 	nbTxAcks 	0
scalar Forest.networkOne[10].nic.mac 	nbDuplicates 	0
scalar Forest.networkOne[10].nic.mac 	meanBackoff 	0.0026686668007239
scalar Forest.networkOne[10].nic.mac 	nbBackoffs 	19892
scalar Forest.networkOne[10].nic.mac 	backoffDurations 	53.08512
scalar Forest.networkOne[10].nic.phy 	nbFramesWithInterference 	35433
scalar Forest.networkOne[10].nic.phy 	nbFramesWithoutInterference 	229767
scalar Forest.networkOne[10].nic.phy 	nbFramesWithInterferencePartial 	5738
scalar Forest.networkOne[10].nic.phy 	nbFramesWithoutInterferencePartial 	6
scalar Forest.networkOne[10].nic.phy 	nbFramesWithInterferenceDropped 	4391
scalar Forest.networkOne[10].nic.phy 	nbFramesWithoutInterferenceDropped 	114
scalar Forest.networkOne[10].netwl 	nbDataPacketsForwarded 	4574
scalar Forest.networkOne[10].netwl 	nbDataPacketsReceived 	0
scalar Forest.networkOne[10].netwl 	nbDataPacketsSent 	4591
scalar Forest.networkOne[10].netwl 	nbDuplicatedFloodsReceived 	46327
scalar Forest.networkOne[10].netwl 	nbFloodsSent 	0
scalar Forest.networkOne[10].netwl 	nbPureUnicastSent 	4591
scalar Forest.networkOne[10].netwl 	nbRouteFloodsSent 	0
scalar Forest.networkOne[10].netwl 	nbRouteFloodsReceived 	5
scalar Forest.networkOne[10].netwl 	nbUnicastFloodForwarded 	4569
scalar Forest.networkOne[10].netwl 	nbPureUnicastForwarded 	0
scalar Forest.networkOne[10].netwl 	nbGetRouteFailures 	0
scalar Forest.networkOne[10].netwl 	nbRoutesRecorded 	1
scalar Forest.networkOne[10].netwl 	meanNbHops 	-nan
scalar Forest.networkOne[10].tranl 	nbAggrPktReceived 	0
scalar Forest.networkOne[10].tranl 	"nbAggrPktSentDown " 	0
scalar Forest.networkOne[10].batteryStats 	nominal 	10800000
attr unit  mW-s
scalar Forest.networkOne[10].batteryStats 	total 	283137.14030923
attr unit  mW-s
scalar Forest.networkOne[10].batteryStats 	lifetime 	-1
attr unit  s
scalar Forest.networkOne[10].batteryStats 	"Mean power consumption" 	56.514394122173
attr unit  mW
scalar Forest.networkOne[10].batteryStats 	"num devices" 	2
scalar Forest.networkOne[10].batteryStats 	"physical layer" 	0
scalar Forest.networkOne[10].batteryStats 	"device total (mWs)" 	282526.94985213
scalar Forest.networkOne[10].batteryStats 	account 	0
scalar Forest.networkOne[10].batteryStats 	"energy (mWs)" 	0
scalar Forest.networkOne[10].batteryStats 	"time (s)" 	0
scalar Forest.networkOne[10].batteryStats 	"account 0" 	0
scalar Forest.networkOne[10].batteryStats 	account 	1
scalar Forest.networkOne[10].batteryStats 	"energy (mWs)" 	281895.44476413
scalar Forest.networkOne[10].batteryStats 	"time (s)" 	4998.1461837626
scalar Forest.networkOne[10].batteryStats 	"account 1" 	281895.44476413
scalar Forest.networkOne[10].batteryStats 	account 	2
scalar Forest.networkOne[10].batteryStats 	"energy (mWs)" 	460.79988480002
scalar Forest.networkOne[10].batteryStats 	"time (s)" 	8.827584
scalar Forest.networkOne[10].batteryStats 	"account 2" 	460.79988480002
scalar Forest.networkOne[10].batteryStats 	account 	3
scalar Forest.networkOne[10].batteryStats 	"energy (mWs)" 	170.70520320004
scalar Forest.networkOne[10].batteryStats 	"time (s)" 	3.026688
scalar Forest.networkOne[10].batteryStats 	"account 3" 	170.70520320004
scalar Forest.networkOne[10].batteryStats 	account 	4
scalar Forest.networkOne[10].batteryStats 	"energy (mWs)" 	0
scalar Forest.networkOne[10].batteryStats 	"time (s)" 	0
scalar Forest.networkOne[10].batteryStats 	"account 4" 	0
scalar Forest.networkOne[10].batteryStats 	TemperatureSensorLayer 	1
scalar Forest.networkOne[10].batteryStats 	"device total (mWs)" 	610.19044841031
scalar Forest.networkOne[10].batteryStats 	account 	0
scalar Forest.networkOne[10].batteryStats 	"energy (mWs)" 	610.19044841031
scalar Forest.networkOne[10].batteryStats 	"time (s)" 	5010.0004557626
scalar Forest.networkOne[10].batteryStats 	"account 0" 	610.19044841031
scalar Forest.networkOne[10].applSensor 	"activity duration" 	-1
attr unit  s
scalar Forest.networkOne[10].applSensor 	firstPacketGeneration 	-1
attr unit  s
scalar Forest.networkOne[10].applSensor 	lastPacketReception 	-2
attr unit  s
scalar Forest.networkOne[10].applSensor 	nbPacketsSent 	4591
scalar Forest.networkOne[10].applSensor 	nbPacketsReceived 	0
statistic Forest.networkOne[10].applSensor 	latency
field count 0
field mean 0
field stddev -nan
field sum 0
field sqrsum 0
field min 0
field max 0
scalar Forest.networkOne[11].nic.mac 	nbTxFrames 	26762
scalar Forest.networkOne[11].nic.mac 	nbRxFrames 	49862
scalar Forest.networkOne[11].nic.mac 	nbDroppedFrames 	1413
scalar Forest.networkOne[11].nic.mac 	nbMissedAcks 	0
scalar Forest.networkOne[11].nic.mac 	nbRecvdAcks 	0
scalar Forest.networkOne[11].nic.mac 	nbTxAcks 	0
scalar Forest.networkOne[11].nic.mac 	nbDuplicates 	0
scalar Forest.networkOne[11].nic.mac 	meanBackoff 	0.002026679199173
scalar Forest.networkOne[11].nic.mac 	nbBackoffs 	42556
scalar Forest.networkOne[11].nic.mac 	backoffDurations 	86.247360000005
scalar Forest.networkOne[11].nic.phy 	nbFramesWithInterference 	36661
scalar Forest.networkOne[11].nic.phy 	nbFramesWithoutInterference 	242089
scalar Forest.networkOne[11].nic.phy 	nbFramesWithInterferencePartial 	7601
scalar Forest.networkOne[11].nic.phy 	nbFramesWithoutInterferencePartial 	2
scalar Forest.networkOne[11].nic.phy 	nbFramesWithInterferenceDropped 	5318
scalar Forest.networkOne[11].nic.phy 	nbFramesWithoutInterferenceDropped 	112
scalar Forest.networkOne[11].netwl 	nbDataPacketsForwarded 	23539
scalar Forest.networkOne[11].netwl 	nbDataPacketsReceived 	0
scalar Forest.networkOne[11].netwl 	nbDataPacketsSent 	4636
scalar Forest.networkOne[11].netwl 	nbDuplicatedFloodsReceived 	49527
scalar Forest.networkOne[11].netwl 	nbFloodsSent 	0
scalar Forest.networkOne[11].netwl 	nbPureUnicastSent 	4636
scalar Forest.networkOne[11].netwl 	nbRouteFloodsSent 	0
scalar Forest.networkOne[11].netwl 	nbRouteFloodsReceived 	5
scalar Forest.networkOne[11].netwl 	nbUnicastFloodForwarded 	4569
scalar Forest.networkOne[11].netwl 	nbPureUnicastForwarded 	18965
scalar Forest.networkOne[11].netwl 	nbGetRouteFailures 	0
scalar Forest.networkOne[11].netwl 	nbRoutesRecorded 	1
scalar Forest.networkOne[11].netwl 	meanNbHops 	-nan
scalar Forest.networkOne[11].tranl 	nbAggrPktReceived 	0
scalar Forest.networkOne[11].tranl 	"nbAggrPktSentDown " 	0
scalar Forest.networkOne[11].batteryStats 	nominal 	10800000
attr unit  mW-s
scalar Forest.networkOne[11].batteryStats 	total 	283054.36585644
attr unit  mW-s
scalar Forest.networkOne[11].batteryStats 	lifetime 	-1
attr unit  s
scalar Forest.networkOne[11].batteryStats 	"Mean power consumption" 	56.497872276811
attr unit  mW
scalar Forest.networkOne[11].batteryStats 	"num devices" 	2
scalar Forest.networkOne[11].batteryStats 	"physical layer" 	0
scalar Forest.networkOne[11].batteryStats 	"device total (mWs)" 	282438.13860084
scalar Forest.networkOne[11].batteryStats 	account 	0
scalar Forest.networkOne[11].batteryStats 	"energy (mWs)" 	0
scalar Forest.networkOne[11].batteryStats 	"time (s)" 	0
scalar Forest.networkOne[11].batteryStats 	"account 0" 	0
scalar Forest.networkOne[11].batteryStats 	account 	1
scalar Forest.networkOne[11].batteryStats 	"energy (mWs)" 	280293.94104564
scalar Forest.networkOne[11].batteryStats 	"time (s)" 	4969.7507277626
scalar Forest.networkOne[11].batteryStats 	"account 1" 	280293.94104564
scalar Forest.networkOne[11].batteryStats 	account 	2
scalar Forest.networkOne[11].batteryStats 	"energy (mWs)" 	1564.5968639993
scalar Forest.networkOne[11].batteryStats 	"time (s)" 	29.97312
scalar Forest.networkOne[11].batteryStats 	"account 2" 	1564.5968639993
scalar Forest.networkOne[11].batteryStats 	account 	3
scalar Forest.networkOne[11].batteryStats 	"energy (mWs)" 	579.60069120053
scalar Forest.networkOne[11].batteryStats 	"time (s)" 	10.276608
scalar Forest.networkOne[11].batteryStats 	"account 3" 	579.60069120053
scalar Forest.networkOne[11].batteryStats 	account 	4
scalar Forest.networkOne[11].batteryStats 	"energy (mWs)" 	0
scalar Forest.networkOne[11].batteryStats 	"time (s)" 	0
scalar Forest.networkOne[11].batteryStats 	"account 4" 	0
scalar Forest.networkOne[11].batteryStats 	TemperatureSensorLayer 	1
scalar Forest.networkOne[11].batteryStats 	"device total (mWs)" 	616.22721839709
scalar Forest.networkOne[11].batteryStats 	account 	0
scalar Forest.networkOne[11].batteryStats 	"energy (mWs)" 	616.22721839709
[...]
scalar Forest.networkTwo[76].batteryStats 	"energy (mWs)" 	175.40490240004
scalar Forest.networkTwo[76].batteryStats 	"time (s)" 	3.110016
scalar Forest.networkTwo[76].batteryStats 	"account 3" 	175.40490240004
scalar Forest.networkTwo[76].batteryStats 	account 	4
scalar Forest.networkTwo[76].batteryStats 	"energy (mWs)" 	0
scalar Forest.networkTwo[76].batteryStats 	"time (s)" 	0
scalar Forest.networkTwo[76].batteryStats 	"account 4" 	0
scalar Forest.networkTwo[76].batteryStats 	TemperatureSensorLayer 	1
scalar Forest.networkTwo[76].batteryStats 	"device total (mWs)" 	614.41214441031
scalar Forest.networkTwo[76].batteryStats 	account 	0
scalar Forest.networkTwo[76].batteryStats 	"energy (mWs)" 	614.41214441031
scalar Forest.networkTwo[76].batteryStats 	"time (s)" 	5010.0004557626
scalar Forest.networkTwo[76].batteryStats 	"account 0" 	614.41214441031
scalar Forest.networkTwo[76].applSensor 	"activity duration" 	-1
attr unit  s
scalar Forest.networkTwo[76].applSensor 	firstPacketGeneration 	-1
attr unit  s
scalar Forest.networkTwo[76].applSensor 	lastPacketReception 	-2
attr unit  s
scalar Forest.networkTwo[76].applSensor 	nbPacketsSent 	4623
scalar Forest.networkTwo[76].applSensor 	nbPacketsReceived 	0
statistic Forest.networkTwo[76].applSensor 	latency
field count 0
field mean 0
field stddev -nan
field sum 0
field sqrsum 0
field min 0
field max 0
scalar Forest.networkTwo[77].nic.mac 	nbTxFrames 	8282
scalar Forest.networkTwo[77].nic.mac 	nbRxFrames 	28612
scalar Forest.networkTwo[77].nic.mac 	nbDroppedFrames 	983
scalar Forest.networkTwo[77].nic.mac 	nbMissedAcks 	0
scalar Forest.networkTwo[77].nic.mac 	nbRecvdAcks 	0
scalar Forest.networkTwo[77].nic.mac 	nbTxAcks 	0
scalar Forest.networkTwo[77].nic.mac 	nbDuplicates 	0
scalar Forest.networkTwo[77].nic.mac 	meanBackoff 	0.0026604570448469
scalar Forest.networkTwo[77].nic.mac 	nbBackoffs 	19823
scalar Forest.networkTwo[77].nic.mac 	backoffDurations 	52.738240000001
scalar Forest.networkTwo[77].nic.phy 	nbFramesWithInterference 	23316
scalar Forest.networkTwo[77].nic.phy 	nbFramesWithoutInterference 	194118
scalar Forest.networkTwo[77].nic.phy 	nbFramesWithInterferencePartial 	9774
scalar Forest.networkTwo[77].nic.phy 	nbFramesWithoutInterferencePartial 	20
scalar Forest.networkTwo[77].nic.phy 	nbFramesWithInterferenceDropped 	5060
scalar Forest.networkTwo[77].nic.phy 	nbFramesWithoutInterferenceDropped 	200
scalar Forest.networkTwo[77].netwl 	nbDataPacketsForwarded 	4570
scalar Forest.networkTwo[77].netwl 	nbDataPacketsReceived 	0
scalar Forest.networkTwo[77].netwl 	nbDataPacketsSent 	4695
scalar Forest.networkTwo[77].netwl 	nbDuplicatedFloodsReceived 	44450
scalar Forest.networkTwo[77].netwl 	nbFloodsSent 	0
scalar Forest.networkTwo[77].netwl 	nbPureUnicastSent 	4695
scalar Forest.networkTwo[77].netwl 	nbRouteFloodsSent 	0
scalar Forest.networkTwo[77].netwl 	nbRouteFloodsReceived 	5
scalar Forest.networkTwo[77].netwl 	nbUnicastFloodForwarded 	4565
scalar Forest.networkTwo[77].netwl 	nbPureUnicastForwarded 	0
scalar Forest.networkTwo[77].netwl 	nbGetRouteFailures 	0
scalar Forest.networkTwo[77].netwl 	nbRoutesRecorded 	1
scalar Forest.networkTwo[77].netwl 	meanNbHops 	-nan
scalar Forest.networkTwo[77].tranl 	nbAggrPktReceived 	0
scalar Forest.networkTwo[77].tranl 	"nbAggrPktSentDown " 	0
scalar Forest.networkTwo[77].batteryStats 	nominal 	10800000
attr unit  mW-s
scalar Forest.networkTwo[77].batteryStats 	total 	283148.97922199
attr unit  mW-s
scalar Forest.networkTwo[77].batteryStats 	lifetime 	-1
attr unit  s
scalar Forest.networkTwo[77].batteryStats 	"Mean power consumption" 	56.516757178396
attr unit  mW
scalar Forest.networkTwo[77].batteryStats 	"num devices" 	2
scalar Forest.networkTwo[77].batteryStats 	"physical layer" 	0
scalar Forest.networkTwo[77].batteryStats 	"device total (mWs)" 	282525.06825212
scalar Forest.networkTwo[77].batteryStats 	account 	0
scalar Forest.networkTwo[77].batteryStats 	"energy (mWs)" 	0
scalar Forest.networkTwo[77].batteryStats 	"time (s)" 	0
scalar Forest.networkTwo[77].batteryStats 	"account 0" 	0
scalar Forest.networkTwo[77].batteryStats 	account 	1
scalar Forest.networkTwo[77].batteryStats 	"energy (mWs)" 	281861.51452412
scalar Forest.networkTwo[77].batteryStats 	"time (s)" 	4997.5445837626
scalar Forest.networkTwo[77].batteryStats 	"account 1" 	281861.51452412
scalar Forest.networkTwo[77].batteryStats 	account 	2
scalar Forest.networkTwo[77].batteryStats 	"energy (mWs)" 	484.18548480003
scalar Forest.networkTwo[77].batteryStats 	"time (s)" 	9.275584
scalar Forest.networkTwo[77].batteryStats 	"account 2" 	484.18548480003
scalar Forest.networkTwo[77].batteryStats 	account 	3
scalar Forest.networkTwo[77].batteryStats 	"energy (mWs)" 	179.36824320005
scalar Forest.networkTwo[77].batteryStats 	"time (s)" 	3.180288
scalar Forest.networkTwo[77].batteryStats 	"account 3" 	179.36824320005
scalar Forest.networkTwo[77].batteryStats 	account 	4
scalar Forest.networkTwo[77].batteryStats 	"energy (mWs)" 	0
scalar Forest.networkTwo[77].batteryStats 	"time (s)" 	0
scalar Forest.networkTwo[77].batteryStats 	"account 4" 	0
scalar Forest.networkTwo[77].batteryStats 	TemperatureSensorLayer 	1
scalar Forest.networkTwo[77].batteryStats 	"device total (mWs)" 	623.91096041033
scalar Forest.networkTwo[77].batteryStats 	account 	0
scalar Forest.networkTwo[77].batteryStats 	"energy (mWs)" 	623.91096041033
scalar Forest.networkTwo[77].batteryStats 	"time (s)" 	5010.0004557626
scalar Forest.networkTwo[77].batteryStats 	"account 0" 	623.91096041033
scalar Forest.networkTwo[77].applSensor 	"activity duration" 	-1
attr unit  s
scalar Forest.networkTwo[77].applSensor 	firstPacketGeneration 	-1
attr unit  s
scalar Forest.networkTwo[77].applSensor 	lastPacketReception 	-2
attr unit  s
scalar Forest.networkTwo[77].applSensor 	nbPacketsSent 	4695
scalar Forest.networkTwo[77].applSensor 	nbPacketsReceived 	0
statistic Forest.networkTwo[77].applSensor 	latency
field count 0
field mean 0
field stddev -nan
field sum 0
field sqrsum 0
field min 0
field max 0
scalar Forest.networkTwo[78].nic.mac 	nbTxFrames 	8076
scalar Forest.networkTwo[78].nic.mac 	nbRxFrames 	26766
scalar Forest.networkTwo[78].nic.mac 	nbDroppedFrames 	1026
scalar Forest.networkTwo[78].nic.mac 	nbMissedAcks 	0
scalar Forest.networkTwo[78].nic.mac 	nbRecvdAcks 	0
scalar Forest.networkTwo[78].nic.mac 	nbTxAcks 	0
scalar Forest.networkTwo[78].nic.mac 	nbDuplicates 	0
scalar Forest.networkTwo[78].nic.mac 	meanBackoff 	0.0026663186951067
scalar Forest.networkTwo[78].nic.mac 	nbBackoffs 	19925
scalar Forest.networkTwo[78].nic.mac 	backoffDurations 	53.126400000001
scalar Forest.networkTwo[78].nic.phy 	nbFramesWithInterference 	21968
scalar Forest.networkTwo[78].nic.phy 	nbFramesWithoutInterference 	182799
scalar Forest.networkTwo[78].nic.phy 	nbFramesWithInterferencePartial 	9049
scalar Forest.networkTwo[78].nic.phy 	nbFramesWithoutInterferencePartial 	13
scalar Forest.networkTwo[78].nic.phy 	nbFramesWithInterferenceDropped 	4502
scalar Forest.networkTwo[78].nic.phy 	nbFramesWithoutInterferenceDropped 	182
scalar Forest.networkTwo[78].netwl 	nbDataPacketsForwarded 	4570
scalar Forest.networkTwo[78].netwl 	nbDataPacketsReceived 	0
scalar Forest.networkTwo[78].netwl 	nbDataPacketsSent 	4532
scalar Forest.networkTwo[78].netwl 	nbDuplicatedFloodsReceived 	42545
scalar Forest.networkTwo[78].netwl 	nbFloodsSent 	0
scalar Forest.networkTwo[78].netwl 	nbPureUnicastSent 	4532
scalar Forest.networkTwo[78].netwl 	nbRouteFloodsSent 	0
scalar Forest.networkTwo[78].netwl 	nbRouteFloodsReceived 	5
scalar Forest.networkTwo[78].netwl 	nbUnicastFloodForwarded 	4565
scalar Forest.networkTwo[78].netwl 	nbPureUnicastForwarded 	0
scalar Forest.networkTwo[78].netwl 	nbGetRouteFailures 	0
scalar Forest.networkTwo[78].netwl 	nbRoutesRecorded 	1
scalar Forest.networkTwo[78].netwl 	meanNbHops 	-nan
scalar Forest.networkTwo[78].tranl 	nbAggrPktReceived 	0
scalar Forest.networkTwo[78].tranl 	"nbAggrPktSentDown " 	0
scalar Forest.networkTwo[78].batteryStats 	nominal 	10800000
attr unit  mW-s
scalar Forest.networkTwo[78].batteryStats 	total 	283128.44398179
attr unit  mW-s
scalar Forest.networkTwo[78].batteryStats 	lifetime 	-1
attr unit  s
scalar Forest.networkTwo[78].batteryStats 	"Mean power consumption" 	56.512658328429
attr unit  mW
scalar Forest.networkTwo[78].batteryStats 	"num devices" 	2
scalar Forest.networkTwo[78].batteryStats 	"physical layer" 	0
scalar Forest.networkTwo[78].batteryStats 	"device total (mWs)" 	282526.03727613
scalar Forest.networkTwo[78].batteryStats 	account 	0
scalar Forest.networkTwo[78].batteryStats 	"energy (mWs)" 	0
scalar Forest.networkTwo[78].batteryStats 	"time (s)" 	0
scalar Forest.networkTwo[78].batteryStats 	"account 0" 	0
scalar Forest.networkTwo[78].batteryStats 	account 	1
scalar Forest.networkTwo[78].batteryStats 	"energy (mWs)" 	281878.98859773
scalar Forest.networkTwo[78].batteryStats 	"time (s)" 	4997.8544077626
scalar Forest.networkTwo[78].batteryStats 	"account 1" 	281878.98859773
scalar Forest.networkTwo[78].batteryStats 	account 	2
scalar Forest.networkTwo[78].batteryStats 	"energy (mWs)" 	472.14190080003
scalar Forest.networkTwo[78].batteryStats 	"time (s)" 	9.044864
scalar Forest.networkTwo[78].batteryStats 	"account 2" 	472.14190080003
scalar Forest.networkTwo[78].batteryStats 	account 	3
scalar Forest.networkTwo[78].batteryStats 	"energy (mWs)" 	174.90677760004
scalar Forest.networkTwo[78].batteryStats 	"time (s)" 	3.101184
scalar Forest.networkTwo[78].batteryStats 	"account 3" 	174.90677760004
scalar Forest.networkTwo[78].batteryStats 	account 	4
scalar Forest.networkTwo[78].batteryStats 	"energy (mWs)" 	0
scalar Forest.networkTwo[78].batteryStats 	"time (s)" 	0
scalar Forest.networkTwo[78].batteryStats 	"account 4" 	0
scalar Forest.networkTwo[78].batteryStats 	TemperatureSensorLayer 	1
scalar Forest.networkTwo[78].batteryStats 	"device total (mWs)" 	602.4066964103
scalar Forest.networkTwo[78].batteryStats 	account 	0
scalar Forest.networkTwo[78].batteryStats 	"energy (mWs)" 	602.4066964103
scalar Forest.networkTwo[78].batteryStats 	"time (s)" 	5010.0004557626
scalar Forest.networkTwo[78].batteryStats 	"account 0" 	602.4066964103
scalar Forest.networkTwo[78].applSensor 	"activity duration" 	-1
attr unit  s
scalar Forest.networkTwo[78].applSensor 	firstPacketGeneration 	-1
attr unit  s
scalar Forest.networkTwo[78].applSensor 	lastPacketReception 	-2
attr unit  s
scalar Forest.networkTwo[78].applSensor 	nbPacketsSent 	4532
scalar Forest.networkTwo[78].applSensor 	nbPacketsReceived 	0
statistic Forest.networkTwo[78].applSensor 	latency
field count 0
field mean 0
field stddev -nan
field sum 0
field sqrsum 0
field min 0
field max 0
scalar Forest.networkTwo[79].nic.mac 	nbTxFrames 	8309
scalar Forest.networkTwo[79].nic.mac 	nbRxFrames 	25112
scalar Forest.networkTwo[79].nic.mac 	nbDroppedFrames 	913
scalar Forest.networkTwo[79].nic.mac 	nbMissedAcks 	0
scalar Forest.networkTwo[79].nic.mac 	nbRecvdAcks 	0
scalar Forest.networkTwo[79].nic.mac 	nbTxAcks 	0
scalar Forest.networkTwo[79].nic.mac 	nbDuplicates 	0
scalar Forest.networkTwo[79].nic.mac 	meanBackoff 	0.0026294990385589
scalar Forest.networkTwo[79].nic.mac 	nbBackoffs 	19762
scalar Forest.networkTwo[79].nic.mac 	backoffDurations 	51.964160000001
scalar Forest.networkTwo[79].nic.phy 	nbFramesWithInterference 	20264
scalar Forest.networkTwo[79].nic.phy 	nbFramesWithoutInterference 	162835
scalar Forest.networkTwo[79].nic.phy 	nbFramesWithInterferencePartial 	7358
scalar Forest.networkTwo[79].nic.phy 	nbFramesWithoutInterferencePartial 	9
scalar Forest.networkTwo[79].nic.phy 	nbFramesWithInterferenceDropped 	3844
scalar Forest.networkTwo[79].nic.phy 	nbFramesWithoutInterferenceDropped 	171
scalar Forest.networkTwo[79].netwl 	nbDataPacketsForwarded 	4570
scalar Forest.networkTwo[79].netwl 	nbDataPacketsReceived 	0
scalar Forest.networkTwo[79].netwl 	nbDataPacketsSent 	4652
scalar Forest.networkTwo[79].netwl 	nbDuplicatedFloodsReceived 	39223
scalar Forest.networkTwo[79].netwl 	nbFloodsSent 	0
scalar Forest.networkTwo[79].netwl 	nbPureUnicastSent 	4652
scalar Forest.networkTwo[79].netwl 	nbRouteFloodsSent 	0
scalar Forest.networkTwo[79].netwl 	nbRouteFloodsReceived 	5
scalar Forest.networkTwo[79].netwl 	nbUnicastFloodForwarded 	4565
scalar Forest.networkTwo[79].netwl 	nbPureUnicastForwarded 	0
scalar Forest.networkTwo[79].netwl 	nbGetRouteFailures 	0
scalar Forest.networkTwo[79].netwl 	nbRoutesRecorded 	1
scalar Forest.networkTwo[79].netwl 	meanNbHops 	-nan
scalar Forest.networkTwo[79].tranl 	nbAggrPktReceived 	0
scalar Forest.networkTwo[79].tranl 	"nbAggrPktSentDown " 	0
scalar Forest.networkTwo[79].batteryStats 	nominal 	10800000
attr unit  mW-s
scalar Forest.networkTwo[79].batteryStats 	total 	283143.17930998
attr unit  mW-s
scalar Forest.networkTwo[79].batteryStats 	lifetime 	-1
attr unit  s
scalar Forest.networkTwo[79].batteryStats 	"Mean power consumption" 	56.515599511434
attr unit  mW
scalar Forest.networkTwo[79].batteryStats 	"num devices" 	2
scalar Forest.networkTwo[79].batteryStats 	"physical layer" 	0
scalar Forest.networkTwo[79].batteryStats 	"device total (mWs)" 	282524.94124413
scalar Forest.networkTwo[79].batteryStats 	account 	0
scalar Forest.networkTwo[79].batteryStats 	"energy (mWs)" 	0
scalar Forest.networkTwo[79].batteryStats 	"time (s)" 	0
scalar Forest.networkTwo[79].batteryStats 	"account 0" 	0
scalar Forest.networkTwo[79].batteryStats 	account 	1
scalar Forest.networkTwo[79].batteryStats 	"energy (mWs)" 	281859.22423293
scalar Forest.networkTwo[79].batteryStats 	"time (s)" 	4997.5039757626
scalar Forest.networkTwo[79].batteryStats 	"account 1" 	281859.22423293
scalar Forest.networkTwo[79].batteryStats 	account 	2
scalar Forest.networkTwo[79].batteryStats 	"energy (mWs)" 	485.76401280003
scalar Forest.networkTwo[79].batteryStats 	"time (s)" 	9.305824
scalar Forest.networkTwo[79].batteryStats 	"account 2" 	485.76401280003
scalar Forest.networkTwo[79].batteryStats 	account 	3
scalar Forest.networkTwo[79].batteryStats 	"energy (mWs)" 	179.95299840005
scalar Forest.networkTwo[79].batteryStats 	"time (s)" 	3.190656
scalar Forest.networkTwo[79].batteryStats 	"account 3" 	179.95299840005
scalar Forest.networkTwo[79].batteryStats 	account 	4
scalar Forest.networkTwo[79].batteryStats 	"energy (mWs)" 	0
scalar Forest.networkTwo[79].batteryStats 	"time (s)" 	0
scalar Forest.networkTwo[79].batteryStats 	"account 4" 	0
scalar Forest.networkTwo[79].batteryStats 	TemperatureSensorLayer 	1
scalar Forest.networkTwo[79].batteryStats 	"device total (mWs)" 	618.23805641032
scalar Forest.networkTwo[79].batteryStats 	account 	0
scalar Forest.networkTwo[79].batteryStats 	"energy (mWs)" 	618.23805641032
scalar Forest.networkTwo[79].batteryStats 	"time (s)" 	5010.0004557626
scalar Forest.networkTwo[79].batteryStats 	"account 0" 	618.23805641032
scalar Forest.networkTwo[79].applSensor 	"activity duration" 	-1
attr unit  s
scalar Forest.networkTwo[79].applSensor 	firstPacketGeneration 	-1
attr unit  s
scalar Forest.networkTwo[79].applSensor 	lastPacketReception 	-2
attr unit  s
scalar Forest.networkTwo[79].applSensor 	nbPacketsSent 	4652
scalar Forest.networkTwo[79].applSensor 	nbPacketsReceived 	0
statistic Forest.networkTwo[79].applSensor 	latency
field count 0
field mean 0
field stddev -nan
field sum 0
field sqrsum 0
field min 0
field max 0
scalar Forest.networkTwo[80].nic.mac 	nbTxFrames 	8351
scalar Forest.networkTwo[80].nic.mac 	nbRxFrames 	22030
scalar Forest.networkTwo[80].nic.mac 	nbDroppedFrames 	905
scalar Forest.networkTwo[80].nic.mac 	nbMissedAcks 	0
scalar Forest.networkTwo[80].nic.mac 	nbRecvdAcks 	0
scalar Forest.networkTwo[80].nic.mac 	nbTxAcks 	0
scalar Forest.networkTwo[80].nic.mac 	nbDuplicates 	0
scalar Forest.networkTwo[80].nic.mac 	meanBackoff 	0.0026316209070572
scalar Forest.networkTwo[80].nic.mac 	nbBackoffs 	19668
scalar Forest.networkTwo[80].nic.mac 	backoffDurations 	51.75872
scalar Forest.networkTwo[80].nic.phy 	nbFramesWithInterference 	18330
scalar Forest.networkTwo[80].nic.phy 	nbFramesWithoutInterference 	135871
scalar Forest.networkTwo[80].nic.phy 	nbFramesWithInterferencePartial 	5173
scalar Forest.networkTwo[80].nic.phy 	nbFramesWithoutInterferencePartial 	16
scalar Forest.networkTwo[80].nic.phy 	nbFramesWithInterferenceDropped 	3148
scalar Forest.networkTwo[80].nic.phy 	nbFramesWithoutInterferenceDropped 	170
scalar Forest.networkTwo[80].netwl 	nbDataPacketsForwarded 	4570
scalar Forest.networkTwo[80].netwl 	nbDataPacketsReceived 	0
scalar Forest.networkTwo[80].netwl 	nbDataPacketsSent 	4686
scalar Forest.networkTwo[80].netwl 	nbDuplicatedFloodsReceived 	34389
scalar Forest.networkTwo[80].netwl 	nbFloodsSent 	0
scalar Forest.networkTwo[80].netwl 	nbPureUnicastSent 	4686
scalar Forest.networkTwo[80].netwl 	nbRouteFloodsSent 	0
scalar Forest.networkTwo[80].netwl 	nbRouteFloodsReceived 	5
scalar Forest.networkTwo[80].netwl 	nbUnicastFloodForwarded 	4565
scalar Forest.networkTwo[80].netwl 	nbPureUnicastForwarded 	0
scalar Forest.networkTwo[80].netwl 	nbGetRouteFailures 	0
scalar Forest.networkTwo[80].netwl 	nbRoutesRecorded 	1
scalar Forest.networkTwo[80].netwl 	meanNbHops 	-nan
scalar Forest.networkTwo[80].tranl 	nbAggrPktReceived 	0
scalar Forest.networkTwo[80].tranl 	"nbAggrPktSentDown " 	0
scalar Forest.networkTwo[80].batteryStats 	nominal 	10800000
attr unit  mW-s
scalar Forest.networkTwo[80].batteryStats 	total 	283147.46729402
attr unit  mW-s
scalar Forest.networkTwo[80].batteryStats 	lifetime 	-1
attr unit  s
scalar Forest.networkTwo[80].batteryStats 	"Mean power consumption" 	56.516455396395
attr unit  mW
scalar Forest.networkTwo[80].batteryStats 	"num devices" 	2
scalar Forest.networkTwo[80].batteryStats 	"physical layer" 	0
scalar Forest.networkTwo[80].batteryStats 	"device total (mWs)" 	282524.74367612
scalar Forest.networkTwo[80].batteryStats 	account 	0
scalar Forest.networkTwo[80].batteryStats 	"energy (mWs)" 	0
scalar Forest.networkTwo[80].batteryStats 	"time (s)" 	0
scalar Forest.networkTwo[80].batteryStats 	"account 0" 	0
scalar Forest.networkTwo[80].batteryStats 	account 	1
scalar Forest.networkTwo[80].batteryStats 	"energy (mWs)" 	281855.66155772
scalar Forest.networkTwo[80].batteryStats 	"time (s)" 	4997.4408077626
scalar Forest.networkTwo[80].batteryStats 	"account 1" 	281855.66155772
scalar Forest.networkTwo[80].batteryStats 	account 	2
scalar Forest.networkTwo[80].batteryStats 	"energy (mWs)" 	488.21950080003
scalar Forest.networkTwo[80].batteryStats 	"time (s)" 	9.352864
scalar Forest.networkTwo[80].batteryStats 	"account 2" 	488.21950080003
scalar Forest.networkTwo[80].batteryStats 	account 	3
scalar Forest.networkTwo[80].batteryStats 	"energy (mWs)" 	180.86261760005
scalar Forest.networkTwo[80].batteryStats 	"time (s)" 	3.206784
scalar Forest.networkTwo[80].batteryStats 	"account 3" 	180.86261760005
scalar Forest.networkTwo[80].batteryStats 	account 	4
scalar Forest.networkTwo[80].batteryStats 	"energy (mWs)" 	0
scalar Forest.networkTwo[80].batteryStats 	"time (s)" 	0
scalar Forest.networkTwo[80].batteryStats 	"account 4" 	0
scalar Forest.networkTwo[80].batteryStats 	TemperatureSensorLayer 	1
scalar Forest.networkTwo[80].batteryStats 	"device total (mWs)" 	622.72360841032
scalar Forest.networkTwo[80].batteryStats 	account 	0
scalar Forest.networkTwo[80].batteryStats 	"energy (mWs)" 	622.72360841032
scalar Forest.networkTwo[80].batteryStats 	"time (s)" 	5010.0004557626
scalar Forest.networkTwo[80].batteryStats 	"account 0" 	622.72360841032
scalar Forest.networkTwo[80].applSensor 	"activity duration" 	-1
attr unit  s
scalar Forest.networkTwo[80].applSensor 	firstPacketGeneration 	-1
attr unit  s
scalar Forest.networkTwo[80].applSensor 	lastPacketReception 	-2
attr unit  s
scalar Forest.networkTwo[80].applSensor 	nbPacketsSent 	4686
scalar Forest.networkTwo[80].applSensor 	nbPacketsReceived 	0
statistic Forest.networkTwo[80].applSensor 	latency
field count 0
field mean 0
field stddev -nan
field sum 0
field sqrsum 0
field min 0
field max 0
