version 2
run Nodes_in_grid-2-20130704-10:51:06-18110
attr configname Nodes_in_grid
attr datetime 20130704-10:51:06
attr experiment Nodes_in_grid
attr inifile omnetpp.ini
attr iterationvars "$0=5000, $1=5000, $2=5000, $3=5000, $4=5000, $5=5000, $6=5000, $7=5000, $8=5000, $9=2500, $10=0, $11=0, $12=0, $13=0, $14=0, $15=0, $16=0, $17=0, $18=0, $19=0, $plan=3, $sensitivity=-94dBm, $20=false, $21=0"
attr iterationvars2 "$0=5000, $1=5000, $2=5000, $3=5000, $4=5000, $5=5000, $6=5000, $7=5000, $8=5000, $9=2500, $10=0, $11=0, $12=0, $13=0, $14=0, $15=0, $16=0, $17=0, $18=0, $19=0, $plan=3, $sensitivity=-94dBm, $20=false, $21=0, $repetition=0"
attr measurement "$0=5000, $1=5000, $2=5000, $3=5000, $4=5000, $5=5000, $6=5000, $7=5000, $8=5000, $9=2500, $10=0, $11=0, $12=0, $13=0, $14=0, $15=0, $16=0, $17=0, $18=0, $19=0, $plan=3, $sensitivity=-94dBm, $20=false, $21=0"
attr network Forest
attr plan 3
attr processid 18110
attr repetition 0
attr replication #0
attr resultdir results
attr runnumber 2
attr seedset 2
attr sensitivity -94dBm

scalar . 	plan 	3
scalar . 	sensitivity 	-94
attr unit  dBm
scalar Forest.networkOne[0].nic.mac 	nbTxFrames 	2505
scalar Forest.networkOne[0].nic.mac 	nbRxFrames 	85161
scalar Forest.networkOne[0].nic.mac 	nbDroppedFrames 	0
scalar Forest.networkOne[0].nic.mac 	nbMissedAcks 	0
scalar Forest.networkOne[0].nic.mac 	nbRecvdAcks 	0
scalar Forest.networkOne[0].nic.mac 	nbTxAcks 	0
scalar Forest.networkOne[0].nic.mac 	nbDuplicates 	0
scalar Forest.networkOne[0].nic.mac 	meanBackoff 	0.001327921623513
scalar Forest.networkOne[0].nic.mac 	nbBackoffs 	2858
scalar Forest.networkOne[0].nic.mac 	backoffDurations 	3.7952
scalar Forest.networkOne[0].nic.phy 	nbFramesWithInterference 	16597
scalar Forest.networkOne[0].nic.phy 	nbFramesWithoutInterference 	92743
scalar Forest.networkOne[0].nic.phy 	nbFramesWithInterferencePartial 	1649
scalar Forest.networkOne[0].nic.phy 	nbFramesWithoutInterferencePartial 	3
scalar Forest.networkOne[0].nic.phy 	nbFramesWithInterferenceDropped 	1841
scalar Forest.networkOne[0].nic.phy 	nbFramesWithoutInterferenceDropped 	38
scalar Forest.networkOne[0].netwl 	nbDataPacketsForwarded 	0
scalar Forest.networkOne[0].netwl 	nbDataPacketsReceived 	64799
scalar Forest.networkOne[0].netwl 	nbDataPacketsSent 	2500
scalar Forest.networkOne[0].netwl 	nbDuplicatedFloodsReceived 	20580
scalar Forest.networkOne[0].netwl 	nbFloodsSent 	2505
scalar Forest.networkOne[0].netwl 	nbPureUnicastSent 	0
scalar Forest.networkOne[0].netwl 	nbRouteFloodsSent 	5
scalar Forest.networkOne[0].netwl 	nbRouteFloodsReceived 	0
scalar Forest.networkOne[0].netwl 	nbUnicastFloodForwarded 	0
scalar Forest.networkOne[0].netwl 	nbPureUnicastForwarded 	0
scalar Forest.networkOne[0].netwl 	nbGetRouteFailures 	2500
scalar Forest.networkOne[0].netwl 	nbRoutesRecorded 	0
scalar Forest.networkOne[0].netwl 	meanNbHops 	0.6408895199
scalar Forest.networkOne[0].tranl 	nbAggrPktReceived 	0
scalar Forest.networkOne[0].tranl 	"nbAggrPktSentDown " 	0
scalar Forest.networkOne[0].batteryStats 	nominal 	10800000
attr unit  mW-s
scalar Forest.networkOne[0].batteryStats 	total 	282886.75458903
attr unit  mW-s
scalar Forest.networkOne[0].batteryStats 	lifetime 	-1
attr unit  s
scalar Forest.networkOne[0].batteryStats 	"Mean power consumption" 	56.464380557302
attr unit  mW
scalar Forest.networkOne[0].batteryStats 	"num devices" 	2
scalar Forest.networkOne[0].batteryStats 	"physical layer" 	0
scalar Forest.networkOne[0].batteryStats 	"device total (mWs)" 	282552.42558379
scalar Forest.networkOne[0].batteryStats 	account 	0
scalar Forest.networkOne[0].batteryStats 	"energy (mWs)" 	0
scalar Forest.networkOne[0].batteryStats 	"time (s)" 	0
scalar Forest.networkOne[0].batteryStats 	"account 0" 	0
scalar Forest.networkOne[0].batteryStats 	account 	1
scalar Forest.networkOne[0].batteryStats 	"energy (mWs)" 	282351.73767979
scalar Forest.networkOne[0].batteryStats 	"time (s)" 	5006.2364836841
scalar Forest.networkOne[0].batteryStats 	"account 1" 	282351.73767979
scalar Forest.networkOne[0].batteryStats 	account 	2
scalar Forest.networkOne[0].batteryStats 	"energy (mWs)" 	146.435616
scalar Forest.networkOne[0].batteryStats 	"time (s)" 	2.80528
scalar Forest.networkOne[0].batteryStats 	"account 2" 	146.435616
scalar Forest.networkOne[0].batteryStats 	account 	3
scalar Forest.networkOne[0].batteryStats 	"energy (mWs)" 	54.252287999996
scalar Forest.networkOne[0].batteryStats 	"time (s)" 	0.96192
scalar Forest.networkOne[0].batteryStats 	"account 3" 	54.252287999996
scalar Forest.networkOne[0].batteryStats 	account 	4
scalar Forest.networkOne[0].batteryStats 	"energy (mWs)" 	0
scalar Forest.networkOne[0].batteryStats 	"time (s)" 	0
scalar Forest.networkOne[0].batteryStats 	"account 4" 	0
scalar Forest.networkOne[0].batteryStats 	TemperatureSensorLayer 	1
scalar Forest.networkOne[0].batteryStats 	"device total (mWs)" 	334.32900331531
scalar Forest.networkOne[0].batteryStats 	account 	0
scalar Forest.networkOne[0].batteryStats 	"energy (mWs)" 	334.32900331531
scalar Forest.networkOne[0].batteryStats 	"time (s)" 	5010.0036836841
scalar Forest.networkOne[0].batteryStats 	"account 0" 	334.32900331531
scalar Forest.networkOne[0].applSensor 	latency1 	0.0056021535386593
attr unit  s
statistic Forest.networkOne[0].applSensor 	1
field count 2471
field mean 0.0056021535386593
field stddev 0.0043560747854944
field sum 13.842921394027
field sqrsum 0.12441937828888
field min 0.003232
field max 0.059409499032
scalar Forest.networkOne[0].applSensor 	latency2 	0.0055292682904807
attr unit  s
statistic Forest.networkOne[0].applSensor 	2
field count 2276
field mean 0.0055292682904807
field stddev 0.0039275994753147
field sum 12.584614629134
field sqrsum 0.10467794624436
field min 0.003232
field max 0.057851060449
scalar Forest.networkOne[0].applSensor 	latency3 	0.0054332486664107
attr unit  s
statistic Forest.networkOne[0].applSensor 	3
field count 1736
field mean 0.0054332486664107
field stddev 0.0037277383724282
field sum 9.432119684889
field sqrsum 0.075356669601979
field min 0.003232
field max 0.048415857475
scalar Forest.networkOne[0].applSensor 	latency4 	0.0055820023057918
attr unit  s
statistic Forest.networkOne[0].applSensor 	4
field count 1071
field mean 0.0055820023057918
field stddev 0.0040737544696242
field sum 5.978324469503
field sqrsum 0.051128179735836
field min 0.003232
field max 0.047529625539
scalar Forest.networkOne[0].applSensor 	latency5 	0.0053544036875513
attr unit  s
statistic Forest.networkOne[0].applSensor 	5
field count 604
field mean 0.0053544036875513
field stddev 0.003508590003679
field sum 3.234059827281
field sqrsum 0.024739514764747
field min 0.003232
field max 0.032998767242
scalar Forest.networkOne[0].applSensor 	latency6 	0.0053515739254969
attr unit  s
statistic Forest.networkOne[0].applSensor 	6
field count 320
field mean 0.0053515739254969
field stddev 0.0033418024468657
field sum 1.712503656159
field sqrsum 0.012727068220066
field min 0.003232
field max 0.034912
scalar Forest.networkOne[0].applSensor 	latency7 	0.016286583523238
attr unit  s
statistic Forest.networkOne[0].applSensor 	7
field count 286
field mean 0.016286583523238
field stddev 0.0062166712784131
field sum 4.657962887646
field sqrsum 0.086876697126185
field min 0.010016
field max 0.052025890565
scalar Forest.networkOne[0].applSensor 	latency8 	0.016449473597791
attr unit  s
statistic Forest.networkOne[0].applSensor 	8
field count 201
field mean 0.016449473597791
field stddev 0.0062638531753
field sum 3.306344193156
field sqrsum 0.062234792830873
field min 0.010016
field max 0.045616413222
scalar Forest.networkOne[0].applSensor 	latency9 	0.0053770960838975
attr unit  s
statistic Forest.networkOne[0].applSensor 	9
field count 2467
field mean 0.0053770960838975
field stddev 0.0037650218565195
field sum 13.265296038975
field sqrsum 0.10628528208737
field min 0.003232
field max 0.043703647824
scalar Forest.networkOne[0].applSensor 	latency10 	0.0050398178470326
attr unit  s
statistic Forest.networkOne[0].applSensor 	10
field count 4447
field mean 0.0050398178470326
field stddev 0.0032674621978606
field sum 22.412069965754
field sqrsum 0.16041962096978
field min 0.003232
field max 0.052636704409
scalar Forest.networkOne[0].applSensor 	latency11 	0.0054504963887199
attr unit  s
statistic Forest.networkOne[0].applSensor 	11
field count 2213
field mean 0.0054504963887199
field stddev 0.0040063285624612
field sum 12.061948508237
field sqrsum 0.10124768561854
field min 0.003232
field max 0.054190765924
scalar Forest.networkOne[0].applSensor 	latency12 	0.0056802050810475
attr unit  s
statistic Forest.networkOne[0].applSensor 	12
field count 1579
field mean 0.0056802050810475
field stddev 0.0044208811322399
field sum 8.969043822974
field sqrsum 0.081786740092348
field min 0.003232
field max 0.050557283561
scalar Forest.networkOne[0].applSensor 	latency13 	0.0098780353524251
attr unit  s
statistic Forest.networkOne[0].applSensor 	13
field count 2588
field mean 0.0098780353524251
field stddev 0.0039137445971575
field sum 25.564355492076
field sqrsum 0.29215171276128
field min 0.006464
field max 0.050609027058
scalar Forest.networkOne[0].applSensor 	latency14 	0.005487340668011
attr unit  s
statistic Forest.networkOne[0].applSensor 	14
field count 546
field mean 0.005487340668011
field stddev 0.00369798780681
field sum 2.996088004734
field sqrsum 0.023893492584844
field min 0.003232
field max 0.038919518631
scalar Forest.networkOne[0].applSensor 	latency15 	0.015779364774084
attr unit  s
statistic Forest.networkOne[0].applSensor 	15
field count 521
field mean 0.015779364774084
field stddev 0.0055495771589603
field sum 8.221049047298
field sqrsum 0.14573779119745
field min 0.009696
field max 0.047619775613
scalar Forest.networkOne[0].applSensor 	latency16 	0.014606754702035
attr unit  s
statistic Forest.networkOne[0].applSensor 	16
field count 1835
field mean 0.014606754702035
field stddev 0.0046889155639963
field sum 26.803394878234
field sqrsum 0.43183280825911
field min 0.009696
field max 0.065557852778
scalar Forest.networkOne[0].applSensor 	latency17 	0.016468623869716
attr unit  s
statistic Forest.networkOne[0].applSensor 	17
field count 271
field mean 0.016468623869716
field stddev 0.0063577610142427
field sum 4.462997068693
field sqrsum 0.08441312383679
field min 0.010336
field max 0.05436621799
scalar Forest.networkOne[0].applSensor 	latency18 	0.0055781914151245
attr unit  s
statistic Forest.networkOne[0].applSensor 	18
field count 2281
field mean 0.0055781914151245
field stddev 0.0041854957819128
field sum 12.723854617899
field sqrsum 0.11091799146099
field min 0.003232
field max 0.051968693963
scalar Forest.networkOne[0].applSensor 	latency19 	0.0056325651320498
attr unit  s
statistic Forest.networkOne[0].applSensor 	19
field count 2190
field mean 0.0056325651320498
field stddev 0.0044780677430715
field sum 12.335317639189
field sqrsum 0.11337569559481
field min 0.003232
field max 0.046521894096
scalar Forest.networkOne[0].applSensor 	latency20 	0.0055578765861493
attr unit  s
statistic Forest.networkOne[0].applSensor 	20
field count 1829
field mean 0.0055578765861493
field stddev 0.0042255660117419
field sum 10.165356276067
field sqrsum 0.089137481679226
field min 0.003232
field max 0.053835012337
scalar Forest.networkOne[0].applSensor 	latency21 	0.0055066139843822
attr unit  s
statistic Forest.networkOne[0].applSensor 	21
field count 1269
field mean 0.0055066139843822
field stddev 0.0037163602903343
field sum 6.987893146181
field sqrsum 0.055992401388132
field min 0.003232
field max 0.04099416747
scalar Forest.networkOne[0].applSensor 	latency22 	0.011099751366424
attr unit  s
statistic Forest.networkOne[0].applSensor 	22
field count 590
field mean 0.011099751366424
field stddev 0.0054693060003745
field sum 6.54885330619
field sqrsum 0.090309581919948
field min 0.006464
field max 0.04754257041
scalar Forest.networkOne[0].applSensor 	latency23 	0.010905570043404
attr unit  s
statistic Forest.networkOne[0].applSensor 	23
field count 413
field mean 0.010905570043404
field stddev 0.0049257097222633
field sum 4.504000427926
field sqrsum 0.059114890044686
field min 0.006464
field max 0.048397533155
scalar Forest.networkOne[0].applSensor 	latency24 	0.015621870999404
attr unit  s
statistic Forest.networkOne[0].applSensor 	24
field count 349
field mean 0.015621870999404
field stddev 0.0060083106587688
field sum 5.452032978792
field sqrsum 0.097733685225537
field min 0.010016
field max 0.048416
scalar Forest.networkOne[0].applSensor 	latency25 	0.016131465988501
attr unit  s
statistic Forest.networkOne[0].applSensor 	25
field count 389
field mean 0.016131465988501
field stddev 0.0057684504949416
field sum 6.275140269527
field sqrsum 0.11413792002264
field min 0.009696
field max 0.058555651591
scalar Forest.networkOne[0].applSensor 	latency26 	0.01650295233774
attr unit  s
statistic Forest.networkOne[0].applSensor 	26
field count 281
field mean 0.01650295233774
field stddev 0.006480428884764
field sum 4.637329606905
field sqrsum 0.08828849786568
field min 0.010656
field max 0.051623771523
scalar Forest.networkOne[0].applSensor 	latency27 	0.0054297998133291
attr unit  s
statistic Forest.networkOne[0].applSensor 	27
field count 1717
field mean 0.0054297998133291
field stddev 0.0039624550665455
field sum 9.322966279486
field sqrsum 0.077564842628963
field min 0.003232
field max 0.052250476527
scalar Forest.networkOne[0].applSensor 	latency28 	0.011031015901617
attr unit  s
statistic Forest.networkOne[0].applSensor 	28
field count 765
field mean 0.011031015901617
field stddev 0.0054992311155258
field sum 8.438727164737
field sqrsum 0.11619227229016
field min 0.006464
field max 0.061504
scalar Forest.networkOne[0].applSensor 	latency29 	0.011229457214724
attr unit  s
statistic Forest.networkOne[0].applSensor 	29
field count 793
field mean 0.011229457214724
field stddev 0.0055137425650472
field sum 8.904959571276
field sqrsum 0.12407573730679
field min 0.006464
field max 0.053851087607
scalar Forest.networkOne[0].applSensor 	latency30 	0.010981239000893
attr unit  s
statistic Forest.networkOne[0].applSensor 	30
field count 821
field mean 0.010981239000893
field stddev 0.0051417662587247
field sum 9.015597219733
field sqrsum 0.12068139121835
field min 0.006464
field max 0.053373858664
scalar Forest.networkOne[0].applSensor 	latency31 	0.010648793525282
attr unit  s
statistic Forest.networkOne[0].applSensor 	31
field count 691
field mean 0.010648793525282
field stddev 0.0047183420654655
field sum 7.35831632597
field sqrsum 0.093718490023219
field min 0.006464
field max 0.054392164494
scalar Forest.networkOne[0].applSensor 	latency32 	0.011327456396002
attr unit  s
statistic Forest.networkOne[0].applSensor 	32
field count 497
field mean 0.011327456396002
field stddev 0.0062073329371731
field sum 5.629745828813
field sqrsum 0.082882067564139
field min 0.006464
field max 0.055767809945
scalar Forest.networkOne[0].applSensor 	latency33 	0.016504320671486
attr unit  s
statistic Forest.networkOne[0].applSensor 	33
field count 362
field mean 0.016504320671486
field stddev 0.0064073143520735
field sum 5.974564083078
field sqrsum 0.11342649897093
field min 0.010016
field max 0.056330396183
scalar Forest.networkOne[0].applSensor 	latency34 	0.010548096118384
attr unit  s
statistic Forest.networkOne[0].applSensor 	34
field count 388
field mean 0.010548096118384
field stddev 0.0043980162108563
field sum 4.092661293933
field sqrsum 0.050655350239095
field min 0.006464
field max 0.038091888523
scalar Forest.networkOne[0].applSensor 	latency35 	0.010494261873014
attr unit  s
statistic Forest.networkOne[0].applSensor 	35
field count 216
field mean 0.010494261873014
field stddev 0.0059798908990877
field sum 2.266760564571
field sqrsum 0.031476184428502
field min 0.006464
field max 0.059174684835
scalar Forest.networkOne[0].applSensor 	latency36 	0.005401820498943
attr unit  s
statistic Forest.networkOne[0].applSensor 	36
field count 1106
field mean 0.005401820498943
field stddev 0.0040198647598743
field sum 5.974413471831
field sqrsum 0.050128749681184
field min 0.003232
field max 0.047329787338
scalar Forest.networkOne[0].applSensor 	latency37 	0.0050955102028035
attr unit  s
statistic Forest.networkOne[0].applSensor 	37
field count 1903
field mean 0.0050955102028035
field stddev 0.0030697501942068
field sum 9.696755915935
field sqrsum 0.067333161320434
field min 0.003232
field max 0.051539743211
scalar Forest.networkOne[0].applSensor 	latency38 	0.0059560629752877
attr unit  s
statistic Forest.networkOne[0].applSensor 	38
field count 817
field mean 0.0059560629752877
field stddev 0.0048638313948924
field sum 4.86610345081
field sqrsum 0.048286812961049
field min 0.003232
field max 0.053372143801
scalar Forest.networkOne[0].applSensor 	latency39 	0.011210508658722
attr unit  s
statistic Forest.networkOne[0].applSensor 	39
field count 810
field mean 0.011210508658722
field stddev 0.0054396094474396
field sum 9.080512013565
field sqrsum 0.12573494346471
field min 0.006464
field max 0.0541023572
scalar Forest.networkOne[0].applSensor 	latency40 	0.009928405581437
attr unit  s
statistic Forest.networkOne[0].applSensor 	40
field count 1350
field mean 0.009928405581437
field stddev 0.0039058713075303
field sum 13.40334753494
field sqrsum 0.153653986051
field min 0.006464
field max 0.042895115094
scalar Forest.networkOne[0].applSensor 	latency41 	0.010242709789981
attr unit  s
statistic Forest.networkOne[0].applSensor 	41
field count 411
field mean 0.010242709789981
field stddev 0.0043127033256866
field sum 4.209753723682
field sqrsum 0.050745043768874
field min 0.006464
field max 0.044819179902
scalar Forest.networkOne[0].applSensor 	latency42 	0.010495906281701
attr unit  s
statistic Forest.networkOne[0].applSensor 	42
field count 405
field mean 0.010495906281701
field stddev 0.004841965670486
field sum 4.250842044089
field sqrsum 0.054088070860956
field min 0.006464
field max 0.048925351904
scalar Forest.networkOne[0].applSensor 	latency43 	0.014721291758173
attr unit  s
statistic Forest.networkOne[0].applSensor 	43
field count 765
field mean 0.014721291758173
field stddev 0.0046168482969598
field sum 11.261788195002
field sqrsum 0.18207294991998
field min 0.010016
field max 0.054789249212
scalar Forest.networkOne[0].applSensor 	latency44 	0.015873212072119
attr unit  s
statistic Forest.networkOne[0].applSensor 	44
field count 268
field mean 0.015873212072119
field stddev 0.0057748600741053
field sum 4.254020835328
field sqrsum 0.076429160248133
field min 0.010016
field max 0.053581269911
scalar Forest.networkOne[0].applSensor 	latency45 	0.011042257092397
attr unit  s
statistic Forest.networkOne[0].applSensor 	45
field count 688
field mean 0.011042257092397
field stddev 0.0055795668250896
field sum 7.597072879569
field sqrsum 0.1052762176974
field min 0.006464
field max 0.061355361726
scalar Forest.networkOne[0].applSensor 	latency46 	0.011096200769034
attr unit  s
statistic Forest.networkOne[0].applSensor 	46
field count 786
field mean 0.011096200769034
field stddev 0.0054009463445363
field sum 8.721613804461
field sqrsum 0.11967540161628
field min 0.006464
field max 0.054069961161
scalar Forest.networkOne[0].applSensor 	latency47 	0.011030372620093
attr unit  s
statistic Forest.networkOne[0].applSensor 	47
field count 773
field mean 0.011030372620093
field stddev 0.0051958476705425
field sum 8.526478035332
field sqrsum 0.1148917849547
field min 0.006464
field max 0.056798809964
scalar Forest.networkOne[0].applSensor 	latency48 	0.010872937429324
attr unit  s
statistic Forest.networkOne[0].applSensor 	48
field count 817
field mean 0.010872937429324
field stddev 0.004831262303318
field sum 8.883189879758
field sqrsum 0.11563270161728
field min 0.006464
field max 0.045164517022
scalar Forest.networkOne[0].applSensor 	latency49 	0.010904251092971
attr unit  s
statistic Forest.networkOne[0].applSensor 	49
field count 691
field mean 0.010904251092971
field stddev 0.0052737328350341
field sum 7.534837505243
field sqrsum 0.10135221813247
field min 0.006464
field max 0.05137043032
scalar Forest.networkOne[0].applSensor 	latency50 	0.011455410098111
attr unit  s
statistic Forest.networkOne[0].applSensor 	50
field count 505
field mean 0.011455410098111
field stddev 0.0067347630285471
field sum 5.784982099546
field sqrsum 0.089129287018075
field min 0.006464
field max 0.057205415754
scalar Forest.networkOne[0].applSensor 	latency51 	0.01641125716882
attr unit  s
statistic Forest.networkOne[0].applSensor 	51
field count 401
field mean 0.01641125716882
field stddev 0.0065789780122879
field sum 6.580914124697
field sqrsum 0.12531425478079
field min 0.010656
field max 0.066656
scalar Forest.networkOne[0].applSensor 	latency52 	0.010005121474964
attr unit  s
statistic Forest.networkOne[0].applSensor 	52
field count 168
field mean 0.010005121474964
field stddev 0.0037571634127255
field sum 1.680860407794
field sqrsum 0.019174630806394
field min 0.006464
field max 0.038232063693
scalar Forest.networkOne[0].applSensor 	latency53 	0.015772762084
attr unit  s
statistic Forest.networkOne[0].applSensor 	53
field count 159
field mean 0.015772762084
field stddev 0.0057103416059516
field sum 2.507869171356
field sqrsum 0.044708087976149
field min 0.010336
field max 0.045665833402
scalar Forest.networkOne[0].applSensor 	latency54 	0.010827821602627
attr unit  s
statistic Forest.networkOne[0].applSensor 	54
field count 635
field mean 0.010827821602627
field stddev 0.0051329079900141
field sum 6.875666717668
field sqrsum 0.091152328589152
field min 0.006464
field max 0.051391673619
scalar Forest.networkOne[0].applSensor 	latency55 	0.010830188020319
attr unit  s
statistic Forest.networkOne[0].applSensor 	55
field count 702
field mean 0.010830188020319
field stddev 0.0049242705791068
field sum 7.602791990264
field sqrsum 0.099337823690051
field min 0.006464
field max 0.050551977803
scalar Forest.networkOne[0].applSensor 	latency56 	0.01098162149515
attr unit  s
statistic Forest.networkOne[0].applSensor 	56
field count 731
field mean 0.01098162149515
field stddev 0.0053341223165499
field sum 8.027565312955
field sqrsum 0.10892627224265
field min 0.006464
field max 0.055638938284
scalar Forest.networkOne[0].applSensor 	latency57 	0.011354009702358
attr unit  s
statistic Forest.networkOne[0].applSensor 	57
field count 706
field mean 0.011354009702358
field stddev 0.005965356591745
field sum 8.015930849865
field sqrsum 0.11610071952581
field min 0.006464
field max 0.065491386913
scalar Forest.networkOne[0].applSensor 	latency58 	0.010747241231937
attr unit  s
statistic Forest.networkOne[0].applSensor 	58
field count 607
field mean 0.010747241231937
field stddev 0.0052411696936989
field sum 6.523575427786
field sqrsum 0.086757173830593
field min 0.006464
field max 0.05297332395
scalar Forest.networkOne[0].applSensor 	latency59 	0.010990034678373
attr unit  s
statistic Forest.networkOne[0].applSensor 	59
field count 424
field mean 0.010990034678373
field stddev 0.0057878113349287
field sum 4.65977470363
field sqrsum 0.06538106108691
field min 0.006464
field max 0.051944137468
scalar Forest.networkOne[0].applSensor 	latency60 	0.011321563401686
attr unit  s
statistic Forest.networkOne[0].applSensor 	60
field count 105
field mean 0.011321563401686
field stddev 0.0059427447135408
field sum 1.188764157177
field sqrsum 0.017131555107084
field min 0.006464
field max 0.037184
scalar Forest.networkOne[0].applSensor 	latency61 	0.010754230495237
attr unit  s
statistic Forest.networkOne[0].applSensor 	61
field count 118
field mean 0.010754230495237
field stddev 0.0046923596192614
field sum 1.268999198438
field sqrsum 0.016223243817461
field min 0.006464
field max 0.040164930221
scalar Forest.networkOne[0].applSensor 	latency62 	0.016369064236802
attr unit  s
statistic Forest.networkOne[0].applSensor 	62
field count 212
field mean 0.016369064236802
field stddev 0.0066145848559123
field sum 3.470241618202
field sqrsum 0.066036434589761
field min 0.009696
field max 0.058038209413
scalar Forest.networkOne[0].applSensor 	latency63 	0.010848095469051
attr unit  s
statistic Forest.networkOne[0].applSensor 	63
field count 432
field mean 0.010848095469051
field stddev 0.0048578780627834
field sum 4.68637724263
field sqrsum 0.061009427798646
field min 0.006464
field max 0.046192198966
scalar Forest.networkOne[0].applSensor 	latency64 	0.0099886571904796
attr unit  s
statistic Forest.networkOne[0].applSensor 	64
field count 957
field mean 0.0099886571904796
field stddev 0.0042343210472077
field sum 9.559144931289
field sqrsum 0.11262359959543
field min 0.006464
field max 0.056762078048
scalar Forest.networkOne[0].applSensor 	latency65 	0.011019705451213
attr unit  s
statistic Forest.networkOne[0].applSensor 	65
field count 574
field mean 0.011019705451213
field stddev 0.0049920974123236
field sum 6.325310928996
field sqrsum 0.083982817281847
field min 0.006464
field max 0.04634852469
scalar Forest.networkOne[0].applSensor 	latency66 	0.015976171402303
attr unit  s
statistic Forest.networkOne[0].applSensor 	66
field count 462
field mean 0.015976171402303
field stddev 0.0068018727791357
field sum 7.380991187864
field sqrsum 0.13924836352914
field min 0.009696
field max 0.081287850427
scalar Forest.networkOne[0].applSensor 	latency67 	0.014618911209567
attr unit  s
statistic Forest.networkOne[0].applSensor 	67
field count 467
field mean 0.014618911209567
field stddev 0.0047434143489539
field sum 6.827031534868
field sqrsum 0.11028875836676
field min 0.010336
field max 0.055776
scalar Forest.networkOne[0].applSensor 	latency68 	0.010994436838914
attr unit  s
statistic Forest.networkOne[0].applSensor 	68
field count 301
field mean 0.010994436838914
field stddev 0.0049378122868824
field sum 3.309325488513
field sqrsum 0.043698767117009
field min 0.006464
field max 0.040459994077
scalar Forest.networkOne[0].applSensor 	latency69 	0.016294910095929
attr unit  s
statistic Forest.networkOne[0].applSensor 	69
field count 112
field mean 0.016294910095929
field stddev 0.0055202409147557
field sum 1.825029930744
field sqrsum 0.033121208276873
field min 0.010016
field max 0.038085268214
scalar Forest.networkOne[0].applSensor 	latency70 	0.015060371514034
attr unit  s
statistic Forest.networkOne[0].applSensor 	70
field count 440
field mean 0.015060371514034
field stddev 0.004968968685649
field sum 6.626563466175
field sqrsum 0.11063770292366
field min 0.010016
field max 0.059458451356
scalar Forest.networkOne[0].applSensor 	latency71 	0.015285695124
attr unit  s
statistic Forest.networkOne[0].applSensor 	71
field count 68
field mean 0.015285695124
field stddev 0.0042819899626213
field sum 1.039427268432
field sqrsum 0.017116842677503
field min 0.010336
field max 0.033767036664
scalar Forest.networkOne[0].applSensor 	latency72 	0.016401447555645
attr unit  s
statistic Forest.networkOne[0].applSensor 	72
field count 498
field mean 0.016401447555645
field stddev 0.0064933973236857
field sum 8.167920882711
field sqrsum 0.15492133777165
field min 0.009696
field max 0.056338060206
scalar Forest.networkOne[0].applSensor 	latency73 	0.016272270643007
attr unit  s
statistic Forest.networkOne[0].applSensor 	73
field count 445
field mean 0.016272270643007
field stddev 0.0060228557785969
field sum 7.241160436138
field sqrsum 0.13393612991429
field min 0.010016
field max 0.062624054636
scalar Forest.networkOne[0].applSensor 	latency74 	0.016197159046506
attr unit  s
statistic Forest.networkOne[0].applSensor 	74
field count 508
field mean 0.016197159046506
field stddev 0.0061190405729556
field sum 8.228156795625
field sqrsum 0.1522561916478
field min 0.010016
field max 0.061224863934
scalar Forest.networkOne[0].applSensor 	latency75 	0.011069942128076
attr unit  s
statistic Forest.networkOne[0].applSensor 	75
field count 344
field mean 0.011069942128076
field stddev 0.0055948525280783
field sum 3.808060092058
field sqrsum 0.05289171939947
field min 0.006464
field max 0.045755800944
scalar Forest.networkOne[0].applSensor 	latency76 	0.010842366591842
attr unit  s
statistic Forest.networkOne[0].applSensor 	76
field count 272
field mean 0.010842366591842
field stddev 0.0051110456196691
field sum 2.949123712981
field sqrsum 0.039054755786272
field min 0.006464
field max 0.045627502885
scalar Forest.networkOne[0].applSensor 	latency77 	0.010688415735103
attr unit  s
statistic Forest.networkOne[0].applSensor 	77
field count 204
field mean 0.010688415735103
field stddev 0.0041301623765257
field sum 2.180436809961
field sqrsum 0.026768238084048
field min 0.006464
field max 0.028544
scalar Forest.networkOne[0].applSensor 	latency78 	0.011933395438028
attr unit  s
statistic Forest.networkOne[0].applSensor 	78
field count 107
field mean 0.011933395438028
field stddev 0.0072734561399177
field sum 1.276873311869
field sqrsum 0.020845169562044
field min 0.006784
field max 0.048540586884
scalar Forest.networkOne[0].applSensor 	latency79 	0.015220814652557
attr unit  s
statistic Forest.networkOne[0].applSensor 	79
field count 174
field mean 0.015220814652557
field stddev 0.0046606283655287
field sum 2.648421749545
field sqrsum 0.044068948591378
field min 0.010016
field max 0.036288978907
scalar Forest.networkOne[0].applSensor 	latency80 	0.015292319687255
attr unit  s
statistic Forest.networkOne[0].applSensor 	80
field count 98
field mean 0.015292319687255
field stddev 0.0054847543413072
field sum 1.498647329351
field sqrsum 0.025835799486782
field min 0.010656
field max 0.04698019411
scalar Forest.networkOne[0].applSensor 	"activity duration" 	4999.7297218486
attr unit  s
scalar Forest.networkOne[0].applSensor 	firstPacketGeneration 	10.105926227914
attr unit  s
scalar Forest.networkOne[0].applSensor 	lastPacketReception 	5009.8356480765
attr unit  s
scalar Forest.networkOne[0].applSensor 	nbPacketsSent 	2500
scalar Forest.networkOne[0].applSensor 	nbPacketsReceived 	64799
statistic Forest.networkOne[0].applSensor 	latency
field count 64799
field mean 0.0087681266429694
field stddev 0.0059458851052835
field sum 568.16583833778
field sqrsum 7.2725893372582
field min 0.003232
field max 0.081287850427
scalar Forest.networkOne[1].nic.mac 	nbTxFrames 	4247
scalar Forest.networkOne[1].nic.mac 	nbRxFrames 	14319
scalar Forest.networkOne[1].nic.mac 	nbDroppedFrames 	757
scalar Forest.networkOne[1].nic.mac 	nbMissedAcks 	0
scalar Forest.networkOne[1].nic.mac 	nbRecvdAcks 	0
scalar Forest.networkOne[1].nic.mac 	nbTxAcks 	0
scalar Forest.networkOne[1].nic.mac 	nbDuplicates 	0
scalar Forest.networkOne[1].nic.mac 	meanBackoff 	0.0026990028153664
scalar Forest.networkOne[1].nic.mac 	nbBackoffs 	11011
scalar Forest.networkOne[1].nic.mac 	backoffDurations 	29.718719999999
scalar Forest.networkOne[1].nic.phy 	nbFramesWithInterference 	17579
scalar Forest.networkOne[1].nic.phy 	nbFramesWithoutInterference 	114455
scalar Forest.networkOne[1].nic.phy 	nbFramesWithInterferencePartial 	2116
scalar Forest.networkOne[1].nic.phy 	nbFramesWithoutInterferencePartial 	5
scalar Forest.networkOne[1].nic.phy 	nbFramesWithInterferenceDropped 	2006
scalar Forest.networkOne[1].nic.phy 	nbFramesWithoutInterferenceDropped 	68
scalar Forest.networkOne[1].netwl 	nbDataPacketsForwarded 	2504
scalar Forest.networkOne[1].netwl 	nbDataPacketsReceived 	0
scalar Forest.networkOne[1].netwl 	nbDataPacketsSent 	2500
scalar Forest.networkOne[1].netwl 	nbDuplicatedFloodsReceived 	22084
scalar Forest.networkOne[1].netwl 	nbFloodsSent 	0
scalar Forest.networkOne[1].netwl 	nbPureUnicastSent 	2500
scalar Forest.networkOne[1].netwl 	nbRouteFloodsSent 	0
scalar Forest.networkOne[1].netwl 	nbRouteFloodsReceived 	5
scalar Forest.networkOne[1].netwl 	nbUnicastFloodForwarded 	2499
scalar Forest.networkOne[1].netwl 	nbPureUnicastForwarded 	0
scalar Forest.networkOne[1].netwl 	nbGetRouteFailures 	0
scalar Forest.networkOne[1].netwl 	nbRoutesRecorded 	1
scalar Forest.networkOne[1].netwl 	meanNbHops 	-nan
scalar Forest.networkOne[1].tranl 	nbAggrPktReceived 	0
scalar Forest.networkOne[1].tranl 	"nbAggrPktSentDown " 	0
scalar Forest.networkOne[1].batteryStats 	nominal 	10800000
attr unit  mW-s
scalar Forest.networkOne[1].batteryStats 	total 	282878.55968628
attr unit  mW-s
scalar Forest.networkOne[1].batteryStats 	lifetime 	-1
attr unit  s
scalar Forest.networkOne[1].batteryStats 	"Mean power consumption" 	56.462744849373
attr unit  mW
scalar Forest.networkOne[1].batteryStats 	"num devices" 	2
scalar Forest.networkOne[1].batteryStats 	"physical layer" 	0
scalar Forest.networkOne[1].batteryStats 	"device total (mWs)" 	282544.23067818
scalar Forest.networkOne[1].batteryStats 	account 	0
scalar Forest.networkOne[1].batteryStats 	"energy (mWs)" 	0
scalar Forest.networkOne[1].batteryStats 	"time (s)" 	0
scalar Forest.networkOne[1].batteryStats 	"account 0" 	0
scalar Forest.networkOne[1].batteryStats 	account 	1
scalar Forest.networkOne[1].batteryStats 	"energy (mWs)" 	282203.96426538
scalar Forest.networkOne[1].batteryStats 	"time (s)" 	5003.6163876841
scalar Forest.networkOne[1].batteryStats 	"account 1" 	282203.96426538
scalar Forest.networkOne[1].batteryStats 	account 	2
scalar Forest.networkOne[1].batteryStats 	"energy (mWs)" 	248.28658559997
scalar Forest.networkOne[1].batteryStats 	"time (s)" 	4.756448
scalar Forest.networkOne[1].batteryStats 	"account 2" 	248.28658559997
scalar Forest.networkOne[1].batteryStats 	account 	3
scalar Forest.networkOne[1].batteryStats 	"energy (mWs)" 	91.979827199992
scalar Forest.networkOne[1].batteryStats 	"time (s)" 	1.630848
scalar Forest.networkOne[1].batteryStats 	"account 3" 	91.979827199992
scalar Forest.networkOne[1].batteryStats 	account 	4
scalar Forest.networkOne[1].batteryStats 	"energy (mWs)" 	0
scalar Forest.networkOne[1].batteryStats 	"time (s)" 	0
scalar Forest.networkOne[1].batteryStats 	"account 4" 	0
scalar Forest.networkOne[1].batteryStats 	TemperatureSensorLayer 	1
scalar Forest.networkOne[1].batteryStats 	"device total (mWs)" 	334.3290033153
scalar Forest.networkOne[1].batteryStats 	account 	0
scalar Forest.networkOne[1].batteryStats 	"energy (mWs)" 	334.3290033153
scalar Forest.networkOne[1].batteryStats 	"time (s)" 	5010.0036836841
scalar Forest.networkOne[1].batteryStats 	"account 0" 	334.3290033153
scalar Forest.networkOne[1].applSensor 	"activity duration" 	-1
attr unit  s
scalar Forest.networkOne[1].applSensor 	firstPacketGeneration 	-1
attr unit  s
scalar Forest.networkOne[1].applSensor 	lastPacketReception 	-2
attr unit  s
scalar Forest.networkOne[1].applSensor 	nbPacketsSent 	2500
scalar Forest.networkOne[1].applSensor 	nbPacketsReceived 	0
statistic Forest.networkOne[1].applSensor 	latency
field count 0
field mean 0
field stddev -nan
field sum 0
field sqrsum 0
field min 0
field max 0
scalar Forest.networkOne[2].nic.mac 	nbTxFrames 	4268
scalar Forest.networkOne[2].nic.mac 	nbRxFrames 	15823
scalar Forest.networkOne[2].nic.mac 	nbDroppedFrames 	736
scalar Forest.networkOne[2].nic.mac 	nbMissedAcks 	0
scalar Forest.networkOne[2].nic.mac 	nbRecvdAcks 	0
scalar Forest.networkOne[2].nic.mac 	nbTxAcks 	0
scalar Forest.networkOne[2].nic.mac 	nbDuplicates 	0
scalar Forest.networkOne[2].nic.mac 	meanBackoff 	0.0026590095411176
scalar Forest.networkOne[2].nic.mac 	nbBackoffs 	11005
scalar Forest.networkOne[2].nic.mac 	backoffDurations 	29.262399999999
scalar Forest.networkOne[2].nic.phy 	nbFramesWithInterference 	18840
scalar Forest.networkOne[2].nic.phy 	nbFramesWithoutInterference 	131225
scalar Forest.networkOne[2].nic.phy 	nbFramesWithInterferencePartial 	2795
scalar Forest.networkOne[2].nic.phy 	nbFramesWithoutInterferencePartial 	5
scalar Forest.networkOne[2].nic.phy 	nbFramesWithInterferenceDropped 	2467
scalar Forest.networkOne[2].nic.phy 	nbFramesWithoutInterferenceDropped 	57
scalar Forest.networkOne[2].netwl 	nbDataPacketsForwarded 	2504
scalar Forest.networkOne[2].netwl 	nbDataPacketsReceived 	0
scalar Forest.networkOne[2].netwl 	nbDataPacketsSent 	2500
scalar Forest.networkOne[2].netwl 	nbDuplicatedFloodsReceived 	24220
scalar Forest.networkOne[2].netwl 	nbFloodsSent 	0
scalar Forest.networkOne[2].netwl 	nbPureUnicastSent 	2500
scalar Forest.networkOne[2].netwl 	nbRouteFloodsSent 	0
scalar Forest.networkOne[2].netwl 	nbRouteFloodsReceived 	5
scalar Forest.networkOne[2].netwl 	nbUnicastFloodForwarded 	2499
scalar Forest.networkOne[2].netwl 	nbPureUnicastForwarded 	0
scalar Forest.networkOne[2].netwl 	nbGetRouteFailures 	0
scalar Forest.networkOne[2].netwl 	nbRoutesRecorded 	1
scalar Forest.networkOne[2].netwl 	meanNbHops 	-nan
scalar Forest.networkOne[2].tranl 	nbAggrPktReceived 	0
scalar Forest.networkOne[2].tranl 	"nbAggrPktSentDown " 	0
scalar Forest.networkOne[2].batteryStats 	nominal 	10800000
attr unit  mW-s
scalar Forest.networkOne[2].batteryStats 	total 	282878.46144006
attr unit  mW-s
scalar Forest.networkOne[2].batteryStats 	lifetime 	-1
attr unit  s
scalar Forest.networkOne[2].batteryStats 	"Mean power consumption" 	56.462725239364
attr unit  mW
scalar Forest.networkOne[2].batteryStats 	"num devices" 	2
scalar Forest.networkOne[2].batteryStats 	"physical layer" 	0
scalar Forest.networkOne[2].batteryStats 	"device total (mWs)" 	282544.13243179
scalar Forest.networkOne[2].batteryStats 	account 	0
scalar Forest.networkOne[2].batteryStats 	"energy (mWs)" 	0
scalar Forest.networkOne[2].batteryStats 	"time (s)" 	0
scalar Forest.networkOne[2].batteryStats 	"account 0" 	0
scalar Forest.networkOne[2].batteryStats 	account 	1
scalar Forest.networkOne[2].batteryStats 	"energy (mWs)" 	282202.19014699
scalar Forest.networkOne[2].batteryStats 	"time (s)" 	5003.5849316841
scalar Forest.networkOne[2].batteryStats 	"account 1" 	282202.19014699
scalar Forest.networkOne[2].batteryStats 	account 	2
scalar Forest.networkOne[2].batteryStats 	"energy (mWs)" 	249.50764799997
scalar Forest.networkOne[2].batteryStats 	"time (s)" 	4.77984
scalar Forest.networkOne[2].batteryStats 	"account 2" 	249.50764799997
scalar Forest.networkOne[2].batteryStats 	account 	3
scalar Forest.networkOne[2].batteryStats 	"energy (mWs)" 	92.434636799991
scalar Forest.networkOne[2].batteryStats 	"time (s)" 	1.638912
scalar Forest.networkOne[2].batteryStats 	"account 3" 	92.434636799991
scalar Forest.networkOne[2].batteryStats 	account 	4
scalar Forest.networkOne[2].batteryStats 	"energy (mWs)" 	0
scalar Forest.networkOne[2].batteryStats 	"time (s)" 	0
scalar Forest.networkOne[2].batteryStats 	"account 4" 	0
scalar Forest.networkOne[2].batteryStats 	TemperatureSensorLayer 	1
scalar Forest.networkOne[2].batteryStats 	"device total (mWs)" 	334.3290033153
scalar Forest.networkOne[2].batteryStats 	account 	0
scalar Forest.networkOne[2].batteryStats 	"energy (mWs)" 	334.3290033153
scalar Forest.networkOne[2].batteryStats 	"time (s)" 	5010.0036836841
scalar Forest.networkOne[2].batteryStats 	"account 0" 	334.3290033153
scalar Forest.networkOne[2].applSensor 	"activity duration" 	-1
attr unit  s
scalar Forest.networkOne[2].applSensor 	firstPacketGeneration 	-1
attr unit  s
scalar Forest.networkOne[2].applSensor 	lastPacketReception 	-2
attr unit  s
scalar Forest.networkOne[2].applSensor 	nbPacketsSent 	2500
scalar Forest.networkOne[2].applSensor 	nbPacketsReceived 	0
statistic Forest.networkOne[2].applSensor 	latency
field count 0
field mean 0
field stddev -nan
field sum 0
field sqrsum 0
field min 0
field max 0
scalar Forest.networkOne[3].nic.mac 	nbTxFrames 	4262
scalar Forest.networkOne[3].nic.mac 	nbRxFrames 	15943
scalar Forest.networkOne[3].nic.mac 	nbDroppedFrames 	742
scalar Forest.networkOne[3].nic.mac 	nbMissedAcks 	0
scalar Forest.networkOne[3].nic.mac 	nbRecvdAcks 	0
scalar Forest.networkOne[3].nic.mac 	nbTxAcks 	0
scalar Forest.networkOne[3].nic.mac 	nbDuplicates 	0
scalar Forest.networkOne[3].nic.mac 	meanBackoff 	0.0027172473741397
scalar Forest.networkOne[3].nic.mac 	nbBackoffs 	11044
scalar Forest.networkOne[3].nic.mac 	backoffDurations 	30.009279999999
scalar Forest.networkOne[3].nic.phy 	nbFramesWithInterference 	18901
scalar Forest.networkOne[3].nic.phy 	nbFramesWithoutInterference 	138785
scalar Forest.networkOne[3].nic.phy 	nbFramesWithInterferencePartial 	3666
scalar Forest.networkOne[3].nic.phy 	nbFramesWithoutInterferencePartial 	4
scalar Forest.networkOne[3].nic.phy 	nbFramesWithInterferenceDropped 	2722
scalar Forest.networkOne[3].nic.phy 	nbFramesWithoutInterferenceDropped 	57
scalar Forest.networkOne[3].netwl 	nbDataPacketsForwarded 	2504
scalar Forest.networkOne[3].netwl 	nbDataPacketsReceived 	0
scalar Forest.networkOne[3].netwl 	nbDataPacketsSent 	2500
scalar Forest.networkOne[3].netwl 	nbDuplicatedFloodsReceived 	24676
scalar Forest.networkOne[3].netwl 	nbFloodsSent 	0
scalar Forest.networkOne[3].netwl 	nbPureUnicastSent 	2500
scalar Forest.networkOne[3].netwl 	nbRouteFloodsSent 	0
scalar Forest.networkOne[3].netwl 	nbRouteFloodsReceived 	5
scalar Forest.networkOne[3].netwl 	nbUnicastFloodForwarded 	2499
scalar Forest.networkOne[3].netwl 	nbPureUnicastForwarded 	0
scalar Forest.networkOne[3].netwl 	nbGetRouteFailures 	0
scalar Forest.networkOne[3].netwl 	nbRoutesRecorded 	1
scalar Forest.networkOne[3].netwl 	meanNbHops 	-nan
scalar Forest.networkOne[3].tranl 	nbAggrPktReceived 	0
scalar Forest.networkOne[3].tranl 	"nbAggrPktSentDown " 	0
scalar Forest.networkOne[3].batteryStats 	nominal 	10800000
attr unit  mW-s
scalar Forest.networkOne[3].batteryStats 	total 	282878.48912637
attr unit  mW-s
scalar Forest.networkOne[3].batteryStats 	lifetime 	-1
attr unit  s
scalar Forest.networkOne[3].batteryStats 	"Mean power consumption" 	56.462730765571
attr unit  mW
scalar Forest.networkOne[3].batteryStats 	"num devices" 	2
scalar Forest.networkOne[3].batteryStats 	"physical layer" 	0
scalar Forest.networkOne[3].batteryStats 	"device total (mWs)" 	282544.16011819
scalar Forest.networkOne[3].batteryStats 	account 	0
scalar Forest.networkOne[3].batteryStats 	"energy (mWs)" 	0
scalar Forest.networkOne[3].batteryStats 	"time (s)" 	0
scalar Forest.networkOne[3].batteryStats 	"account 0" 	0
scalar Forest.networkOne[3].batteryStats 	account 	1
scalar Forest.networkOne[3].batteryStats 	"energy (mWs)" 	282202.69188139
scalar Forest.networkOne[3].batteryStats 	"time (s)" 	5003.5938276841
scalar Forest.networkOne[3].batteryStats 	"account 1" 	282202.69188139
scalar Forest.networkOne[3].batteryStats 	account 	2
scalar Forest.networkOne[3].batteryStats 	"energy (mWs)" 	249.16354559997
scalar Forest.networkOne[3].batteryStats 	"time (s)" 	4.773248
scalar Forest.networkOne[3].batteryStats 	"account 2" 	249.16354559997
scalar Forest.networkOne[3].batteryStats 	account 	3
scalar Forest.networkOne[3].batteryStats 	"energy (mWs)" 	92.304691199991
scalar Forest.networkOne[3].batteryStats 	"time (s)" 	1.636608
scalar Forest.networkOne[3].batteryStats 	"account 3" 	92.304691199991
scalar Forest.networkOne[3].batteryStats 	account 	4
scalar Forest.networkOne[3].batteryStats 	"energy (mWs)" 	0
scalar Forest.networkOne[3].batteryStats 	"time (s)" 	0
scalar Forest.networkOne[3].batteryStats 	"account 4" 	0
scalar Forest.networkOne[3].batteryStats 	TemperatureSensorLayer 	1
scalar Forest.networkOne[3].batteryStats 	"device total (mWs)" 	334.3290033153
scalar Forest.networkOne[3].batteryStats 	account 	0
scalar Forest.networkOne[3].batteryStats 	"energy (mWs)" 	334.3290033153
scalar Forest.networkOne[3].batteryStats 	"time (s)" 	5010.0036836841
scalar Forest.networkOne[3].batteryStats 	"account 0" 	334.3290033153
scalar Forest.networkOne[3].applSensor 	"activity duration" 	-1
attr unit  s
scalar Forest.networkOne[3].applSensor 	firstPacketGeneration 	-1
attr unit  s
scalar Forest.networkOne[3].applSensor 	lastPacketReception 	-2
attr unit  s
scalar Forest.networkOne[3].applSensor 	nbPacketsSent 	2500
scalar Forest.networkOne[3].applSensor 	nbPacketsReceived 	0
statistic Forest.networkOne[3].applSensor 	latency
field count 0
field mean 0
field stddev -nan
field sum 0
field sqrsum 0
field min 0
field max 0
scalar Forest.networkOne[4].nic.mac 	nbTxFrames 	5936
scalar Forest.networkOne[4].nic.mac 	nbRxFrames 	17118
scalar Forest.networkOne[4].nic.mac 	nbDroppedFrames 	731
scalar Forest.networkOne[4].nic.mac 	nbMissedAcks 	0
scalar Forest.networkOne[4].nic.mac 	nbRecvdAcks 	0
scalar Forest.networkOne[4].nic.mac 	nbTxAcks 	0
scalar Forest.networkOne[4].nic.mac 	nbDuplicates 	0
scalar Forest.networkOne[4].nic.mac 	meanBackoff 	0.002523737428023
scalar Forest.networkOne[4].nic.mac 	nbBackoffs 	13025
scalar Forest.networkOne[4].nic.mac 	backoffDurations 	32.871679999999
scalar Forest.networkOne[4].nic.phy 	nbFramesWithInterference 	18556
scalar Forest.networkOne[4].nic.phy 	nbFramesWithoutInterference 	135914
scalar Forest.networkOne[4].nic.phy 	nbFramesWithInterferencePartial 	4271
scalar Forest.networkOne[4].nic.phy 	nbFramesWithoutInterferencePartial 	3
scalar Forest.networkOne[4].nic.phy 	nbFramesWithInterferenceDropped 	2817
scalar Forest.networkOne[4].nic.phy 	nbFramesWithoutInterferenceDropped 	71
scalar Forest.networkOne[4].netwl 	nbDataPacketsForwarded 	4167
scalar Forest.networkOne[4].netwl 	nbDataPacketsReceived 	0
scalar Forest.networkOne[4].netwl 	nbDataPacketsSent 	2500
scalar Forest.networkOne[4].netwl 	nbDuplicatedFloodsReceived 	24608
scalar Forest.networkOne[4].netwl 	nbFloodsSent 	0
scalar Forest.networkOne[4].netwl 	nbPureUnicastSent 	2500
scalar Forest.networkOne[4].netwl 	nbRouteFloodsSent 	0
scalar Forest.networkOne[4].netwl 	nbRouteFloodsReceived 	5
scalar Forest.networkOne[4].netwl 	nbUnicastFloodForwarded 	2499
scalar Forest.networkOne[4].netwl 	nbPureUnicastForwarded 	1663
scalar Forest.networkOne[4].netwl 	nbGetRouteFailures 	0
scalar Forest.networkOne[4].netwl 	nbRoutesRecorded 	1
scalar Forest.networkOne[4].netwl 	meanNbHops 	-nan
scalar Forest.networkOne[4].tranl 	nbAggrPktReceived 	0
scalar Forest.networkOne[4].tranl 	"nbAggrPktSentDown " 	0
scalar Forest.networkOne[4].batteryStats 	nominal 	10800000
attr unit  mW-s
scalar Forest.networkOne[4].batteryStats 	total 	282870.61490144
attr unit  mW-s
scalar Forest.networkOne[4].batteryStats 	lifetime 	-1
attr unit  s
scalar Forest.networkOne[4].batteryStats 	"Mean power consumption" 	56.461159065143
attr unit  mW
scalar Forest.networkOne[4].batteryStats 	"num devices" 	2
scalar Forest.networkOne[4].batteryStats 	"physical layer" 	0
scalar Forest.networkOne[4].batteryStats 	"device total (mWs)" 	282536.28589099
scalar Forest.networkOne[4].batteryStats 	account 	0
scalar Forest.networkOne[4].batteryStats 	"energy (mWs)" 	0
scalar Forest.networkOne[4].batteryStats 	"time (s)" 	0
scalar Forest.networkOne[4].batteryStats 	"account 0" 	0
scalar Forest.networkOne[4].batteryStats 	account 	1
scalar Forest.networkOne[4].batteryStats 	"energy (mWs)" 	282060.69743659
scalar Forest.networkOne[4].batteryStats 	"time (s)" 	5001.0761956841
scalar Forest.networkOne[4].batteryStats 	"account 1" 	282060.69743659
scalar Forest.networkOne[4].batteryStats 	account 	2
scalar Forest.networkOne[4].batteryStats 	"energy (mWs)" 	347.0289408
scalar Forest.networkOne[4].batteryStats 	"time (s)" 	6.648064
scalar Forest.networkOne[4].batteryStats 	"account 2" 	347.0289408
scalar Forest.networkOne[4].batteryStats 	account 	3
scalar Forest.networkOne[4].batteryStats 	"energy (mWs)" 	128.55951359999
scalar Forest.networkOne[4].batteryStats 	"time (s)" 	2.279424
scalar Forest.networkOne[4].batteryStats 	"account 3" 	128.55951359999
scalar Forest.networkOne[4].batteryStats 	account 	4
scalar Forest.networkOne[4].batteryStats 	"energy (mWs)" 	0
scalar Forest.networkOne[4].batteryStats 	"time (s)" 	0
scalar Forest.networkOne[4].batteryStats 	"account 4" 	0
scalar Forest.networkOne[4].batteryStats 	TemperatureSensorLayer 	1
scalar Forest.networkOne[4].batteryStats 	"device total (mWs)" 	334.32900331529
scalar Forest.networkOne[4].batteryStats 	account 	0
scalar Forest.networkOne[4].batteryStats 	"energy (mWs)" 	334.32900331529
scalar Forest.networkOne[4].batteryStats 	"time (s)" 	5010.0036836841
scalar Forest.networkOne[4].batteryStats 	"account 0" 	334.32900331529
scalar Forest.networkOne[4].applSensor 	"activity duration" 	-1
attr unit  s
scalar Forest.networkOne[4].applSensor 	firstPacketGeneration 	-1
attr unit  s
scalar Forest.networkOne[4].applSensor 	lastPacketReception 	-2
attr unit  s
scalar Forest.networkOne[4].applSensor 	nbPacketsSent 	2500
scalar Forest.networkOne[4].applSensor 	nbPacketsReceived 	0
statistic Forest.networkOne[4].applSensor 	latency
field count 0
field mean 0
field stddev -nan
field sum 0
field sqrsum 0
field min 0
field max 0
scalar Forest.networkOne[5].nic.mac 	nbTxFrames 	4277
scalar Forest.networkOne[5].nic.mac 	nbRxFrames 	14966
scalar Forest.networkOne[5].nic.mac 	nbDroppedFrames 	727
scalar Forest.networkOne[5].nic.mac 	nbMissedAcks 	0
scalar Forest.networkOne[5].nic.mac 	nbRecvdAcks 	0
scalar Forest.networkOne[5].nic.mac 	nbTxAcks 	0
scalar Forest.networkOne[5].nic.mac 	nbDuplicates 	0
scalar Forest.networkOne[5].nic.mac 	meanBackoff 	0.0027268734738174
scalar Forest.networkOne[5].nic.mac 	nbBackoffs 	11057
scalar Forest.networkOne[5].nic.mac 	backoffDurations 	30.151039999999
scalar Forest.networkOne[5].nic.phy 	nbFramesWithInterference 	17677
scalar Forest.networkOne[5].nic.phy 	nbFramesWithoutInterference 	128450
scalar Forest.networkOne[5].nic.phy 	nbFramesWithInterferencePartial 	4414
scalar Forest.networkOne[5].nic.phy 	nbFramesWithoutInterferencePartial 	3
scalar Forest.networkOne[5].nic.phy 	nbFramesWithInterferenceDropped 	2674
scalar Forest.networkOne[5].nic.phy 	nbFramesWithoutInterferenceDropped 	61
scalar Forest.networkOne[5].netwl 	nbDataPacketsForwarded 	2504
scalar Forest.networkOne[5].netwl 	nbDataPacketsReceived 	0
scalar Forest.networkOne[5].netwl 	nbDataPacketsSent 	2500
scalar Forest.networkOne[5].netwl 	nbDuplicatedFloodsReceived 	24007
scalar Forest.networkOne[5].netwl 	nbFloodsSent 	0
scalar Forest.networkOne[5].netwl 	nbPureUnicastSent 	2500
scalar Forest.networkOne[5].netwl 	nbRouteFloodsSent 	0
scalar Forest.networkOne[5].netwl 	nbRouteFloodsReceived 	5
scalar Forest.networkOne[5].netwl 	nbUnicastFloodForwarded 	2499
scalar Forest.networkOne[5].netwl 	nbPureUnicastForwarded 	0
scalar Forest.networkOne[5].netwl 	nbGetRouteFailures 	0
scalar Forest.networkOne[5].netwl 	nbRoutesRecorded 	1
scalar Forest.networkOne[5].netwl 	meanNbHops 	-nan
scalar Forest.networkOne[5].tranl 	nbAggrPktReceived 	0
scalar Forest.networkOne[5].tranl 	"nbAggrPktSentDown " 	0
scalar Forest.networkOne[5].batteryStats 	nominal 	10800000
attr unit  mW-s
scalar Forest.networkOne[5].batteryStats 	total 	282878.4188351
attr unit  mW-s
scalar Forest.networkOne[5].batteryStats 	lifetime 	-1
attr unit  s
scalar Forest.networkOne[5].batteryStats 	"Mean power consumption" 	56.462716735386
attr unit  mW
scalar Forest.networkOne[5].batteryStats 	"num devices" 	2
scalar Forest.networkOne[5].batteryStats 	"physical layer" 	0
scalar Forest.networkOne[5].batteryStats 	"device total (mWs)" 	282544.08982698
scalar Forest.networkOne[5].batteryStats 	account 	0
scalar Forest.networkOne[5].batteryStats 	"energy (mWs)" 	0
scalar Forest.networkOne[5].batteryStats 	"time (s)" 	0
scalar Forest.networkOne[5].batteryStats 	"account 0" 	0
scalar Forest.networkOne[5].batteryStats 	account 	1
scalar Forest.networkOne[5].batteryStats 	"energy (mWs)" 	282201.42310698
scalar Forest.networkOne[5].batteryStats 	"time (s)" 	5003.5713316841
scalar Forest.networkOne[5].batteryStats 	"account 1" 	282201.42310698
scalar Forest.networkOne[5].batteryStats 	account 	2
scalar Forest.networkOne[5].batteryStats 	"energy (mWs)" 	250.03716479997
scalar Forest.networkOne[5].batteryStats 	"time (s)" 	4.789984
scalar Forest.networkOne[5].batteryStats 	"account 2" 	250.03716479997
scalar Forest.networkOne[5].batteryStats 	account 	3
scalar Forest.networkOne[5].batteryStats 	"energy (mWs)" 	92.629555199991
scalar Forest.networkOne[5].batteryStats 	"time (s)" 	1.642368
scalar Forest.networkOne[5].batteryStats 	"account 3" 	92.629555199991
scalar Forest.networkOne[5].batteryStats 	account 	4
scalar Forest.networkOne[5].batteryStats 	"energy (mWs)" 	0
scalar Forest.networkOne[5].batteryStats 	"time (s)" 	0
scalar Forest.networkOne[5].batteryStats 	"account 4" 	0
scalar Forest.networkOne[5].batteryStats 	TemperatureSensorLayer 	1
scalar Forest.networkOne[5].batteryStats 	"device total (mWs)" 	334.32900331529
scalar Forest.networkOne[5].batteryStats 	account 	0
scalar Forest.networkOne[5].batteryStats 	"energy (mWs)" 	334.32900331529
scalar Forest.networkOne[5].batteryStats 	"time (s)" 	5010.0036836841
scalar Forest.networkOne[5].batteryStats 	"account 0" 	334.32900331529
scalar Forest.networkOne[5].applSensor 	"activity duration" 	-1
attr unit  s
scalar Forest.networkOne[5].applSensor 	firstPacketGeneration 	-1
attr unit  s
scalar Forest.networkOne[5].applSensor 	lastPacketReception 	-2
attr unit  s
scalar Forest.networkOne[5].applSensor 	nbPacketsSent 	2500
scalar Forest.networkOne[5].applSensor 	nbPacketsReceived 	0
statistic Forest.networkOne[5].applSensor 	latency
field count 0
field mean 0
field stddev -nan
field sum 0
field sqrsum 0
field min 0
field max 0
scalar Forest.networkOne[6].nic.mac 	nbTxFrames 	4338
scalar Forest.networkOne[6].nic.mac 	nbRxFrames 	14316
scalar Forest.networkOne[6].nic.mac 	nbDroppedFrames 	666
scalar Forest.networkOne[6].nic.mac 	nbMissedAcks 	0
scalar Forest.networkOne[6].nic.mac 	nbRecvdAcks 	0
scalar Forest.networkOne[6].nic.mac 	nbTxAcks 	0
scalar Forest.networkOne[6].nic.mac 	nbDuplicates 	0
scalar Forest.networkOne[6].nic.mac 	meanBackoff 	0.0026694221422142
scalar Forest.networkOne[6].nic.mac 	nbBackoffs 	11110
scalar Forest.networkOne[6].nic.mac 	backoffDurations 	29.657279999999
scalar Forest.networkOne[6].nic.phy 	nbFramesWithInterference 	16479
scalar Forest.networkOne[6].nic.phy 	nbFramesWithoutInterference 	114390
scalar Forest.networkOne[6].nic.phy 	nbFramesWithInterferencePartial 	4124
scalar Forest.networkOne[6].nic.phy 	nbFramesWithoutInterferencePartial 	3
scalar Forest.networkOne[6].nic.phy 	nbFramesWithInterferenceDropped 	2373
scalar Forest.networkOne[6].nic.phy 	nbFramesWithoutInterferenceDropped 	45
scalar Forest.networkOne[6].netwl 	nbDataPacketsForwarded 	2504
scalar Forest.networkOne[6].netwl 	nbDataPacketsReceived 	0
scalar Forest.networkOne[6].netwl 	nbDataPacketsSent 	2500
scalar Forest.networkOne[6].netwl 	nbDuplicatedFloodsReceived 	23028
scalar Forest.networkOne[6].netwl 	nbFloodsSent 	0
scalar Forest.networkOne[6].netwl 	nbPureUnicastSent 	2500
scalar Forest.networkOne[6].netwl 	nbRouteFloodsSent 	0
scalar Forest.networkOne[6].netwl 	nbRouteFloodsReceived 	5
scalar Forest.networkOne[6].netwl 	nbUnicastFloodForwarded 	2499
scalar Forest.networkOne[6].netwl 	nbPureUnicastForwarded 	0
scalar Forest.networkOne[6].netwl 	nbGetRouteFailures 	0
scalar Forest.networkOne[6].netwl 	nbRoutesRecorded 	1
scalar Forest.networkOne[6].netwl 	meanNbHops 	-nan
scalar Forest.networkOne[6].tranl 	nbAggrPktReceived 	0
scalar Forest.networkOne[6].tranl 	"nbAggrPktSentDown " 	0
scalar Forest.networkOne[6].batteryStats 	nominal 	10800000
attr unit  mW-s
scalar Forest.networkOne[6].batteryStats 	total 	282878.13189141
attr unit  mW-s
scalar Forest.networkOne[6].batteryStats 	lifetime 	-1
attr unit  s
scalar Forest.networkOne[6].batteryStats 	"Mean power consumption" 	56.462659461239
attr unit  mW
scalar Forest.networkOne[6].batteryStats 	"num devices" 	2
scalar Forest.networkOne[6].batteryStats 	"physical layer" 	0
scalar Forest.networkOne[6].batteryStats 	"device total (mWs)" 	282543.80288299
scalar Forest.networkOne[6].batteryStats 	account 	0
scalar Forest.networkOne[6].batteryStats 	"energy (mWs)" 	0
scalar Forest.networkOne[6].batteryStats 	"time (s)" 	0
scalar Forest.networkOne[6].batteryStats 	"account 0" 	0
scalar Forest.networkOne[6].batteryStats 	account 	1
scalar Forest.networkOne[6].batteryStats 	"energy (mWs)" 	282196.24874539
scalar Forest.networkOne[6].batteryStats 	"time (s)" 	5003.4795876841
scalar Forest.networkOne[6].batteryStats 	"account 1" 	282196.24874539
scalar Forest.networkOne[6].batteryStats 	account 	2
scalar Forest.networkOne[6].batteryStats 	"energy (mWs)" 	253.60346879997
scalar Forest.networkOne[6].batteryStats 	"time (s)" 	4.858304
scalar Forest.networkOne[6].batteryStats 	"account 2" 	253.60346879997
scalar Forest.networkOne[6].batteryStats 	account 	3
scalar Forest.networkOne[6].batteryStats 	"energy (mWs)" 	93.950668799991
scalar Forest.networkOne[6].batteryStats 	"time (s)" 	1.665792
scalar Forest.networkOne[6].batteryStats 	"account 3" 	93.950668799991
scalar Forest.networkOne[6].batteryStats 	account 	4
scalar Forest.networkOne[6].batteryStats 	"energy (mWs)" 	0
scalar Forest.networkOne[6].batteryStats 	"time (s)" 	0
scalar Forest.networkOne[6].batteryStats 	"account 4" 	0
scalar Forest.networkOne[6].batteryStats 	TemperatureSensorLayer 	1
scalar Forest.networkOne[6].batteryStats 	"device total (mWs)" 	334.32900331529
scalar Forest.networkOne[6].batteryStats 	account 	0
scalar Forest.networkOne[6].batteryStats 	"energy (mWs)" 	334.32900331529
scalar Forest.networkOne[6].batteryStats 	"time (s)" 	5010.0036836841
scalar Forest.networkOne[6].batteryStats 	"account 0" 	334.32900331529
scalar Forest.networkOne[6].applSensor 	"activity duration" 	-1
attr unit  s
scalar Forest.networkOne[6].applSensor 	firstPacketGeneration 	-1
attr unit  s
scalar Forest.networkOne[6].applSensor 	lastPacketReception 	-2
attr unit  s
scalar Forest.networkOne[6].applSensor 	nbPacketsSent 	2500
scalar Forest.networkOne[6].applSensor 	nbPacketsReceived 	0
statistic Forest.networkOne[6].applSensor 	latency
field count 0
field mean 0
field stddev -nan
field sum 0
field sqrsum 0
field min 0
field max 0
scalar Forest.networkOne[7].nic.mac 	nbTxFrames 	4370
scalar Forest.networkOne[7].nic.mac 	nbRxFrames 	12914
scalar Forest.networkOne[7].nic.mac 	nbDroppedFrames 	634
scalar Forest.networkOne[7].nic.mac 	nbMissedAcks 	0
scalar Forest.networkOne[7].nic.mac 	nbRecvdAcks 	0
scalar Forest.networkOne[7].nic.mac 	nbTxAcks 	0
scalar Forest.networkOne[7].nic.mac 	nbDuplicates 	0
scalar Forest.networkOne[7].nic.mac 	meanBackoff 	0.0027250058606076
scalar Forest.networkOne[7].nic.mac 	nbBackoffs 	11091
scalar Forest.networkOne[7].nic.mac 	backoffDurations 	30.223039999999
scalar Forest.networkOne[7].nic.phy 	nbFramesWithInterference 	14885
scalar Forest.networkOne[7].nic.phy 	nbFramesWithoutInterference 	94936
scalar Forest.networkOne[7].nic.phy 	nbFramesWithInterferencePartial 	3459
scalar Forest.networkOne[7].nic.phy 	nbFramesWithoutInterferencePartial 	1
scalar Forest.networkOne[7].nic.phy 	nbFramesWithInterferenceDropped 	1976
scalar Forest.networkOne[7].nic.phy 	nbFramesWithoutInterferenceDropped 	63
scalar Forest.networkOne[7].netwl 	nbDataPacketsForwarded 	2504
scalar Forest.networkOne[7].netwl 	nbDataPacketsReceived 	0
scalar Forest.networkOne[7].netwl 	nbDataPacketsSent 	2500
scalar Forest.networkOne[7].netwl 	nbDuplicatedFloodsReceived 	20929
scalar Forest.networkOne[7].netwl 	nbFloodsSent 	0
scalar Forest.networkOne[7].netwl 	nbPureUnicastSent 	2500
scalar Forest.networkOne[7].netwl 	nbRouteFloodsSent 	0
scalar Forest.networkOne[7].netwl 	nbRouteFloodsReceived 	5
scalar Forest.networkOne[7].netwl 	nbUnicastFloodForwarded 	2499
scalar Forest.networkOne[7].netwl 	nbPureUnicastForwarded 	0
scalar Forest.networkOne[7].netwl 	nbGetRouteFailures 	0
scalar Forest.networkOne[7].netwl 	nbRoutesRecorded 	1
scalar Forest.networkOne[7].netwl 	meanNbHops 	-nan
scalar Forest.networkOne[7].tranl 	nbAggrPktReceived 	0
scalar Forest.networkOne[7].tranl 	"nbAggrPktSentDown " 	0
scalar Forest.networkOne[7].batteryStats 	nominal 	10800000
attr unit  mW-s
scalar Forest.networkOne[7].batteryStats 	total 	282877.98163198
attr unit  mW-s
scalar Forest.networkOne[7].batteryStats 	lifetime 	-1
attr unit  s
scalar Forest.networkOne[7].batteryStats 	"Mean power consumption" 	56.462629469359
attr unit  mW
scalar Forest.networkOne[7].batteryStats 	"num devices" 	2
scalar Forest.networkOne[7].batteryStats 	"physical layer" 	0
scalar Forest.networkOne[7].batteryStats 	"device total (mWs)" 	282543.65262378
scalar Forest.networkOne[7].batteryStats 	account 	0
scalar Forest.networkOne[7].batteryStats 	"energy (mWs)" 	0
scalar Forest.networkOne[7].batteryStats 	"time (s)" 	0
scalar Forest.networkOne[7].batteryStats 	"account 0" 	0
scalar Forest.networkOne[7].batteryStats 	account 	1
scalar Forest.networkOne[7].batteryStats 	"energy (mWs)" 	282193.53793578
scalar Forest.networkOne[7].batteryStats 	"time (s)" 	5003.4315236841
scalar Forest.networkOne[7].batteryStats 	"account 1" 	282193.53793578
scalar Forest.networkOne[7].batteryStats 	account 	2
scalar Forest.networkOne[7].batteryStats 	"energy (mWs)" 	255.47097599997
scalar Forest.networkOne[7].batteryStats 	"time (s)" 	4.89408
scalar Forest.networkOne[7].batteryStats 	"account 2" 	255.47097599997
scalar Forest.networkOne[7].batteryStats 	account 	3
scalar Forest.networkOne[7].batteryStats 	"energy (mWs)" 	94.643711999991
scalar Forest.networkOne[7].batteryStats 	"time (s)" 	1.67808
scalar Forest.networkOne[7].batteryStats 	"account 3" 	94.643711999991
scalar Forest.networkOne[7].batteryStats 	account 	4
scalar Forest.networkOne[7].batteryStats 	"energy (mWs)" 	0
scalar Forest.networkOne[7].batteryStats 	"time (s)" 	0
scalar Forest.networkOne[7].batteryStats 	"account 4" 	0
scalar Forest.networkOne[7].batteryStats 	TemperatureSensorLayer 	1
scalar Forest.networkOne[7].batteryStats 	"device total (mWs)" 	334.3290033153
scalar Forest.networkOne[7].batteryStats 	account 	0
scalar Forest.networkOne[7].batteryStats 	"energy (mWs)" 	334.3290033153
scalar Forest.networkOne[7].batteryStats 	"time (s)" 	5010.0036836841
scalar Forest.networkOne[7].batteryStats 	"account 0" 	334.3290033153
scalar Forest.networkOne[7].applSensor 	"activity duration" 	-1
attr unit  s
scalar Forest.networkOne[7].applSensor 	firstPacketGeneration 	-1
attr unit  s
scalar Forest.networkOne[7].applSensor 	lastPacketReception 	-2
attr unit  s
scalar Forest.networkOne[7].applSensor 	nbPacketsSent 	2500
scalar Forest.networkOne[7].applSensor 	nbPacketsReceived 	0
statistic Forest.networkOne[7].applSensor 	latency
field count 0
field mean 0
field stddev -nan
field sum 0
field sqrsum 0
field min 0
field max 0
scalar Forest.networkOne[8].nic.mac 	nbTxFrames 	4376
scalar Forest.networkOne[8].nic.mac 	nbRxFrames 	11355
scalar Forest.networkOne[8].nic.mac 	nbDroppedFrames 	628
scalar Forest.networkOne[8].nic.mac 	nbMissedAcks 	0
scalar Forest.networkOne[8].nic.mac 	nbRecvdAcks 	0
scalar Forest.networkOne[8].nic.mac 	nbTxAcks 	0
scalar Forest.networkOne[8].nic.mac 	nbDuplicates 	0
scalar Forest.networkOne[8].nic.mac 	meanBackoff 	0.0027206354937714
scalar Forest.networkOne[8].nic.mac 	nbBackoffs 	11078
scalar Forest.networkOne[8].nic.mac 	backoffDurations 	30.139199999999
scalar Forest.networkOne[8].nic.phy 	nbFramesWithInterference 	12967
scalar Forest.networkOne[8].nic.phy 	nbFramesWithoutInterference 	74309
scalar Forest.networkOne[8].nic.phy 	nbFramesWithInterferencePartial 	2390
scalar Forest.networkOne[8].nic.phy 	nbFramesWithoutInterferencePartial 	6
scalar Forest.networkOne[8].nic.phy 	nbFramesWithInterferenceDropped 	1709
scalar Forest.networkOne[8].nic.phy 	nbFramesWithoutInterferenceDropped 	75
scalar Forest.networkOne[8].netwl 	nbDataPacketsForwarded 	2504
scalar Forest.networkOne[8].netwl 	nbDataPacketsReceived 	0
scalar Forest.networkOne[8].netwl 	nbDataPacketsSent 	2500
scalar Forest.networkOne[8].netwl 	nbDuplicatedFloodsReceived 	18388
scalar Forest.networkOne[8].netwl 	nbFloodsSent 	0
scalar Forest.networkOne[8].netwl 	nbPureUnicastSent 	2500
scalar Forest.networkOne[8].netwl 	nbRouteFloodsSent 	0
scalar Forest.networkOne[8].netwl 	nbRouteFloodsReceived 	5
scalar Forest.networkOne[8].netwl 	nbUnicastFloodForwarded 	2499
scalar Forest.networkOne[8].netwl 	nbPureUnicastForwarded 	0
scalar Forest.networkOne[8].netwl 	nbGetRouteFailures 	0
scalar Forest.networkOne[8].netwl 	nbRoutesRecorded 	1
scalar Forest.networkOne[8].netwl 	meanNbHops 	-nan
scalar Forest.networkOne[8].tranl 	nbAggrPktReceived 	0
scalar Forest.networkOne[8].tranl 	"nbAggrPktSentDown " 	0
scalar Forest.networkOne[8].batteryStats 	nominal 	10800000
attr unit  mW-s
scalar Forest.networkOne[8].batteryStats 	total 	282877.9534082
attr unit  mW-s
scalar Forest.networkOne[8].batteryStats 	lifetime 	-1
attr unit  s
scalar Forest.networkOne[8].batteryStats 	"Mean power consumption" 	56.462623835874
attr unit  mW
scalar Forest.networkOne[8].batteryStats 	"num devices" 	2
scalar Forest.networkOne[8].batteryStats 	"physical layer" 	0
scalar Forest.networkOne[8].batteryStats 	"device total (mWs)" 	282543.62439979
scalar Forest.networkOne[8].batteryStats 	account 	0
scalar Forest.networkOne[8].batteryStats 	"energy (mWs)" 	0
scalar Forest.networkOne[8].batteryStats 	"time (s)" 	0
scalar Forest.networkOne[8].batteryStats 	"account 0" 	0
scalar Forest.networkOne[8].batteryStats 	account 	1
scalar Forest.networkOne[8].batteryStats 	"energy (mWs)" 	282193.02898219
scalar Forest.networkOne[8].batteryStats 	"time (s)" 	5003.4224996841
scalar Forest.networkOne[8].batteryStats 	"account 1" 	282193.02898219
scalar Forest.networkOne[8].batteryStats 	account 	2
scalar Forest.networkOne[8].batteryStats 	"energy (mWs)" 	255.82175999997
scalar Forest.networkOne[8].batteryStats 	"time (s)" 	4.9008
scalar Forest.networkOne[8].batteryStats 	"account 2" 	255.82175999997
scalar Forest.networkOne[8].batteryStats 	account 	3
scalar Forest.networkOne[8].batteryStats 	"energy (mWs)" 	94.773657599991
scalar Forest.networkOne[8].batteryStats 	"time (s)" 	1.680384
scalar Forest.networkOne[8].batteryStats 	"account 3" 	94.773657599991
scalar Forest.networkOne[8].batteryStats 	account 	4
scalar Forest.networkOne[8].batteryStats 	"energy (mWs)" 	0
scalar Forest.networkOne[8].batteryStats 	"time (s)" 	0
scalar Forest.networkOne[8].batteryStats 	"account 4" 	0
scalar Forest.networkOne[8].batteryStats 	TemperatureSensorLayer 	1
scalar Forest.networkOne[8].batteryStats 	"device total (mWs)" 	334.3290033153
scalar Forest.networkOne[8].batteryStats 	account 	0
scalar Forest.networkOne[8].batteryStats 	"energy (mWs)" 	334.3290033153
scalar Forest.networkOne[8].batteryStats 	"time (s)" 	5010.0036836841
scalar Forest.networkOne[8].batteryStats 	"account 0" 	334.3290033153
scalar Forest.networkOne[8].applSensor 	"activity duration" 	-1
attr unit  s
scalar Forest.networkOne[8].applSensor 	firstPacketGeneration 	-1
attr unit  s
scalar Forest.networkOne[8].applSensor 	lastPacketReception 	-2
attr unit  s
scalar Forest.networkOne[8].applSensor 	nbPacketsSent 	2500
scalar Forest.networkOne[8].applSensor 	nbPacketsReceived 	0
statistic Forest.networkOne[8].applSensor 	latency
field count 0
field mean 0
field stddev -nan
field sum 0
field sqrsum 0
field min 0
field max 0
scalar Forest.networkOne[9].nic.mac 	nbTxFrames 	4235
scalar Forest.networkOne[9].nic.mac 	nbRxFrames 	14377
scalar Forest.networkOne[9].nic.mac 	nbDroppedFrames 	769
scalar Forest.networkOne[9].nic.mac 	nbMissedAcks 	0
scalar Forest.networkOne[9].nic.mac 	nbRecvdAcks 	0
scalar Forest.networkOne[9].nic.mac 	nbTxAcks 	0
scalar Forest.networkOne[9].nic.mac 	nbDuplicates 	0
scalar Forest.networkOne[9].nic.mac 	meanBackoff 	0.0026703167091372
scalar Forest.networkOne[9].nic.mac 	nbBackoffs 	10988
scalar Forest.networkOne[9].nic.mac 	backoffDurations 	29.341439999999
scalar Forest.networkOne[9].nic.phy 	nbFramesWithInterference 	17405
scalar Forest.networkOne[9].nic.phy 	nbFramesWithoutInterference 	123296
scalar Forest.networkOne[9].nic.phy 	nbFramesWithInterferencePartial 	2302
scalar Forest.networkOne[9].nic.phy 	nbFramesWithoutInterferencePartial 	3
scalar Forest.networkOne[9].nic.phy 	nbFramesWithInterferenceDropped 	2125
scalar Forest.networkOne[9].nic.phy 	nbFramesWithoutInterferenceDropped 	71
scalar Forest.networkOne[9].netwl 	nbDataPacketsForwarded 	2504
scalar Forest.networkOne[9].netwl 	nbDataPacketsReceived 	0
scalar Forest.networkOne[9].netwl 	nbDataPacketsSent 	2500
scalar Forest.networkOne[9].netwl 	nbDuplicatedFloodsReceived 	22102
scalar Forest.networkOne[9].netwl 	nbFloodsSent 	0
scalar Forest.networkOne[9].netwl 	nbPureUnicastSent 	2500
scalar Forest.networkOne[9].netwl 	nbRouteFloodsSent 	0
scalar Forest.networkOne[9].netwl 	nbRouteFloodsReceived 	5
scalar Forest.networkOne[9].netwl 	nbUnicastFloodForwarded 	2499
scalar Forest.networkOne[9].netwl 	nbPureUnicastForwarded 	0
scalar Forest.networkOne[9].netwl 	nbGetRouteFailures 	0
scalar Forest.networkOne[9].netwl 	nbRoutesRecorded 	1
scalar Forest.networkOne[9].netwl 	meanNbHops 	-nan
scalar Forest.networkOne[9].tranl 	nbAggrPktReceived 	0
scalar Forest.networkOne[9].tranl 	"nbAggrPktSentDown " 	0
scalar Forest.networkOne[9].batteryStats 	nominal 	10800000
attr unit  mW-s
scalar Forest.networkOne[9].batteryStats 	total 	282878.61667178
attr unit  mW-s
scalar Forest.networkOne[9].batteryStats 	lifetime 	-1
attr unit  s
scalar Forest.networkOne[9].batteryStats 	"Mean power consumption" 	56.462756223717
attr unit  mW
scalar Forest.networkOne[9].batteryStats 	"num devices" 	2
scalar Forest.networkOne[9].batteryStats 	"physical layer" 	0
scalar Forest.networkOne[9].batteryStats 	"device total (mWs)" 	282544.28766379
scalar Forest.networkOne[9].batteryStats 	account 	0
scalar Forest.networkOne[9].batteryStats 	"energy (mWs)" 	0
scalar Forest.networkOne[9].batteryStats 	"time (s)" 	0
scalar Forest.networkOne[9].batteryStats 	"account 0" 	0
scalar Forest.networkOne[9].batteryStats 	account 	1
scalar Forest.networkOne[9].batteryStats 	"energy (mWs)" 	282204.98939179
scalar Forest.networkOne[9].batteryStats 	"time (s)" 	5003.6345636841
scalar Forest.networkOne[9].batteryStats 	"account 1" 	282204.98939179
scalar Forest.networkOne[9].batteryStats 	account 	2
scalar Forest.networkOne[9].batteryStats 	"energy (mWs)" 	247.57833599997
scalar Forest.networkOne[9].batteryStats 	"time (s)" 	4.74288
scalar Forest.networkOne[9].batteryStats 	"account 2" 	247.57833599997
scalar Forest.networkOne[9].batteryStats 	account 	3
scalar Forest.networkOne[9].batteryStats 	"energy (mWs)" 	91.719935999992
scalar Forest.networkOne[9].batteryStats 	"time (s)" 	1.62624
scalar Forest.networkOne[9].batteryStats 	"account 3" 	91.719935999992
scalar Forest.networkOne[9].batteryStats 	account 	4
scalar Forest.networkOne[9].batteryStats 	"energy (mWs)" 	0
scalar Forest.networkOne[9].batteryStats 	"time (s)" 	0
scalar Forest.networkOne[9].batteryStats 	"account 4" 	0
scalar Forest.networkOne[9].batteryStats 	TemperatureSensorLayer 	1
scalar Forest.networkOne[9].batteryStats 	"device total (mWs)" 	334.3290033153
scalar Forest.networkOne[9].batteryStats 	account 	0
scalar Forest.networkOne[9].batteryStats 	"energy (mWs)" 	334.3290033153
scalar Forest.networkOne[9].batteryStats 	"time (s)" 	5010.0036836841
scalar Forest.networkOne[9].batteryStats 	"account 0" 	334.3290033153
scalar Forest.networkOne[9].applSensor 	"activity duration" 	-1
attr unit  s
scalar Forest.networkOne[9].applSensor 	firstPacketGeneration 	-1
attr unit  s
scalar Forest.networkOne[9].applSensor 	lastPacketReception 	-2
attr unit  s
scalar Forest.networkOne[9].applSensor 	nbPacketsSent 	2500
scalar Forest.networkOne[9].applSensor 	nbPacketsReceived 	0
statistic Forest.networkOne[9].applSensor 	latency
field count 0
field mean 0
field stddev -nan
field sum 0
field sqrsum 0
field min 0
field max 0
scalar Forest.networkOne[10].nic.mac 	nbTxFrames 	6264
scalar Forest.networkOne[10].nic.mac 	nbRxFrames 	16405
scalar Forest.networkOne[10].nic.mac 	nbDroppedFrames 	768
scalar Forest.networkOne[10].nic.mac 	nbMissedAcks 	0
scalar Forest.networkOne[10].nic.mac 	nbRecvdAcks 	0
scalar Forest.networkOne[10].nic.mac 	nbTxAcks 	0
scalar Forest.networkOne[10].nic.mac 	nbDuplicates 	0
scalar Forest.networkOne[10].nic.mac 	meanBackoff 	0.0024667970660146
scalar Forest.networkOne[10].nic.mac 	nbBackoffs 	13088
scalar Forest.networkOne[10].nic.mac 	backoffDurations 	32.285439999999
scalar Forest.networkOne[10].nic.phy 	nbFramesWithInterference 	19542
scalar Forest.networkOne[10].nic.phy 	nbFramesWithoutInterference 	149786
scalar Forest.networkOne[10].nic.phy 	nbFramesWithInterferencePartial 	3171
scalar Forest.networkOne[10].nic.phy 	nbFramesWithoutInterferencePartial 	1
scalar Forest.networkOne[10].nic.phy 	nbFramesWithInterferenceDropped 	2495
scalar Forest.networkOne[10].nic.phy 	nbFramesWithoutInterferenceDropped 	80
scalar Forest.networkOne[10].netwl 	nbDataPacketsForwarded 	2504
scalar Forest.networkOne[10].netwl 	nbDataPacketsReceived 	0
scalar Forest.networkOne[10].netwl 	nbDataPacketsSent 	4528
scalar Forest.networkOne[10].netwl 	nbDuplicatedFloodsReceived 	25183
scalar Forest.networkOne[10].netwl 	nbFloodsSent 	0
scalar Forest.networkOne[10].netwl 	nbPureUnicastSent 	4528
scalar Forest.networkOne[10].netwl 	nbRouteFloodsSent 	0
scalar Forest.networkOne[10].netwl 	nbRouteFloodsReceived 	5
scalar Forest.networkOne[10].netwl 	nbUnicastFloodForwarded 	2499
scalar Forest.networkOne[10].netwl 	nbPureUnicastForwarded 	0
scalar Forest.networkOne[10].netwl 	nbGetRouteFailures 	0
scalar Forest.networkOne[10].netwl 	nbRoutesRecorded 	1
scalar Forest.networkOne[10].netwl 	meanNbHops 	-nan
scalar Forest.networkOne[10].tranl 	nbAggrPktReceived 	0
scalar Forest.networkOne[10].tranl 	"nbAggrPktSentDown " 	0
scalar Forest.networkOne[10].batteryStats 	nominal 	10800000
attr unit  mW-s
scalar Forest.networkOne[10].batteryStats 	total 	283136.62197268
attr unit  mW-s
scalar Forest.networkOne[10].batteryStats 	lifetime 	-1
attr unit  s
scalar Forest.networkOne[10].batteryStats 	"Mean power consumption" 	56.514254249904
attr unit  mW
scalar Forest.networkOne[10].batteryStats 	"num devices" 	2
scalar Forest.networkOne[10].batteryStats 	"physical layer" 	0
scalar Forest.networkOne[10].batteryStats 	"device total (mWs)" 	282534.74297892
scalar Forest.networkOne[10].batteryStats 	account 	0
scalar Forest.networkOne[10].batteryStats 	"energy (mWs)" 	0
scalar Forest.networkOne[10].batteryStats 	"time (s)" 	0
scalar Forest.networkOne[10].batteryStats 	"account 0" 	0
scalar Forest.networkOne[10].batteryStats 	account 	1
scalar Forest.networkOne[10].batteryStats 	"energy (mWs)" 	282032.87463972
scalar Forest.networkOne[10].batteryStats 	"time (s)" 	5000.5828836841
scalar Forest.networkOne[10].batteryStats 	"account 1" 	282032.87463972
scalar Forest.networkOne[10].batteryStats 	account 	2
scalar Forest.networkOne[10].batteryStats 	"energy (mWs)" 	366.2051328
scalar Forest.networkOne[10].batteryStats 	"time (s)" 	7.015424
scalar Forest.networkOne[10].batteryStats 	"account 2" 	366.2051328
scalar Forest.networkOne[10].batteryStats 	account 	3
scalar Forest.networkOne[10].batteryStats 	"energy (mWs)" 	135.6632064
scalar Forest.networkOne[10].batteryStats 	"time (s)" 	2.405376
scalar Forest.networkOne[10].batteryStats 	"account 3" 	135.6632064
scalar Forest.networkOne[10].batteryStats 	account 	4
scalar Forest.networkOne[10].batteryStats 	"energy (mWs)" 	0
scalar Forest.networkOne[10].batteryStats 	"time (s)" 	0
scalar Forest.networkOne[10].batteryStats 	"account 4" 	0
scalar Forest.networkOne[10].batteryStats 	TemperatureSensorLayer 	1
scalar Forest.networkOne[10].batteryStats 	"device total (mWs)" 	601.87898731537
scalar Forest.networkOne[10].batteryStats 	account 	0
scalar Forest.networkOne[10].batteryStats 	"energy (mWs)" 	601.87898731537
scalar Forest.networkOne[10].batteryStats 	"time (s)" 	5010.0036836841
scalar Forest.networkOne[10].batteryStats 	"account 0" 	601.87898731537
scalar Forest.networkOne[10].applSensor 	"activity duration" 	-1
attr unit  s
scalar Forest.networkOne[10].applSensor 	firstPacketGeneration 	-1
attr unit  s
scalar Forest.networkOne[10].applSensor 	lastPacketReception 	-2
attr unit  s
scalar Forest.networkOne[10].applSensor 	nbPacketsSent 	4528
scalar Forest.networkOne[10].applSensor 	nbPacketsReceived 	0
statistic Forest.networkOne[10].applSensor 	latency
field count 0
field mean 0
field stddev -nan
field sum 0
field sqrsum 0
field min 0
field max 0
scalar Forest.networkOne[11].nic.mac 	nbTxFrames 	4272
scalar Forest.networkOne[11].nic.mac 	nbRxFrames 	17836
scalar Forest.networkOne[11].nic.mac 	nbDroppedFrames 	732
scalar Forest.networkOne[11].nic.mac 	nbMissedAcks 	0
scalar Forest.networkOne[11].nic.mac 	nbRecvdAcks 	0
scalar Forest.networkOne[11].nic.mac 	nbTxAcks 	0
scalar Forest.networkOne[11].nic.mac 	nbDuplicates 	0
scalar Forest.networkOne[11].nic.mac 	meanBackoff 	0.0027010574210574
scalar Forest.networkOne[11].nic.mac 	nbBackoffs 	10989
scalar Forest.networkOne[11].nic.mac 	backoffDurations 	29.681919999999
scalar Forest.networkOne[11].nic.phy 	nbFramesWithInterference 	20656
scalar Forest.networkOne[11].nic.phy 	nbFramesWithoutInterference 	173151
scalar Forest.networkOne[11].nic.phy 	nbFramesWithInterferencePartial 	4279
scalar Forest.networkOne[11].nic.phy 	nbFramesWithoutInterferencePartial 	4
scalar Forest.networkOne[11].nic.phy 	nbFramesWithInterferenceDropped 	2972
scalar Forest.networkOne[11].nic.phy 	nbFramesWithoutInterferenceDropped 	59
scalar Forest.networkOne[11].netwl 	nbDataPacketsForwarded 	2504
scalar Forest.networkOne[11].netwl 	nbDataPacketsReceived 	0
scalar Forest.networkOne[11].netwl 	nbDataPacketsSent 	2500
scalar Forest.networkOne[11].netwl 	nbDuplicatedFloodsReceived 	27090
scalar Forest.networkOne[11].netwl 	nbFloodsSent 	0
scalar Forest.networkOne[11].netwl 	nbPureUnicastSent 	2500
scalar Forest.networkOne[11].netwl 	nbRouteFloodsSent 	0
scalar Forest.networkOne[11].netwl 	nbRouteFloodsReceived 	5
scalar Forest.networkOne[11].netwl 	nbUnicastFloodForwarded 	2499
scalar Forest.networkOne[11].netwl 	nbPureUnicastForwarded 	0
scalar Forest.networkOne[11].netwl 	nbGetRouteFailures 	0
scalar Forest.networkOne[11].netwl 	nbRoutesRecorded 	1
scalar Forest.networkOne[11].netwl 	meanNbHops 	-nan
scalar Forest.networkOne[11].tranl 	nbAggrPktReceived 	0
scalar Forest.networkOne[11].tranl 	"nbAggrPktSentDown " 	0
scalar Forest.networkOne[11].batteryStats 	nominal 	10800000
attr unit  mW-s
scalar Forest.networkOne[11].batteryStats 	total 	282878.44262393
attr unit  mW-s
scalar Forest.networkOne[11].batteryStats 	lifetime 	-1
attr unit  s
scalar Forest.networkOne[11].batteryStats 	"Mean power consumption" 	56.462721483652
attr unit  mW
scalar Forest.networkOne[11].batteryStats 	"num devices" 	2
scalar Forest.networkOne[11].batteryStats 	"physical layer" 	0
scalar Forest.networkOne[11].batteryStats 	"device total (mWs)" 	282544.11361578
scalar Forest.networkOne[11].batteryStats 	account 	0
scalar Forest.networkOne[11].batteryStats 	"energy (mWs)" 	0
scalar Forest.networkOne[11].batteryStats 	"time (s)" 	0
scalar Forest.networkOne[11].batteryStats 	"account 0" 	0
scalar Forest.networkOne[11].batteryStats 	account 	1
scalar Forest.networkOne[11].batteryStats 	"energy (mWs)" 	282201.85084458
scalar Forest.networkOne[11].batteryStats 	"time (s)" 	5003.5789156841
scalar Forest.networkOne[11].batteryStats 	"account 1" 	282201.85084458
scalar Forest.networkOne[11].batteryStats 	account 	2
scalar Forest.networkOne[11].batteryStats 	"energy (mWs)" 	249.74150399997
scalar Forest.networkOne[11].batteryStats 	"time (s)" 	4.78432
scalar Forest.networkOne[11].batteryStats 	"account 2" 	249.74150399997
scalar Forest.networkOne[11].batteryStats 	account 	3
scalar Forest.networkOne[11].batteryStats 	"energy (mWs)" 	92.521267199991
scalar Forest.networkOne[11].batteryStats 	"time (s)" 	1.640448
scalar Forest.networkOne[11].batteryStats 	"account 3" 	92.521267199991
scalar Forest.networkOne[11].batteryStats 	account 	4
scalar Forest.networkOne[11].batteryStats 	"energy (mWs)" 	0
scalar Forest.networkOne[11].batteryStats 	"time (s)" 	0
scalar Forest.networkOne[11].batteryStats 	"account 4" 	0
scalar Forest.networkOne[11].batteryStats 	TemperatureSensorLayer 	1
scalar Forest.networkOne[11].batteryStats 	"device total (mWs)" 	334.32900331529
scalar Forest.networkOne[11].batteryStats 	account 	0
scalar Forest.networkOne[11].batteryStats 	"energy (mWs)" 	334.32900331529
scalar Forest.networkOne[11].batteryStats 	"time (s)" 	5010.0036836841
[...]
scalar Forest.networkTwo[76].batteryStats 	"energy (mWs)" 	95.986483199991
scalar Forest.networkTwo[76].batteryStats 	"time (s)" 	1.701888
scalar Forest.networkTwo[76].batteryStats 	"account 3" 	95.986483199991
scalar Forest.networkTwo[76].batteryStats 	account 	4
scalar Forest.networkTwo[76].batteryStats 	"energy (mWs)" 	0
scalar Forest.networkTwo[76].batteryStats 	"time (s)" 	0
scalar Forest.networkTwo[76].batteryStats 	"account 4" 	0
scalar Forest.networkTwo[76].batteryStats 	TemperatureSensorLayer 	1
scalar Forest.networkTwo[76].batteryStats 	"device total (mWs)" 	334.3290033153
scalar Forest.networkTwo[76].batteryStats 	account 	0
scalar Forest.networkTwo[76].batteryStats 	"energy (mWs)" 	334.3290033153
scalar Forest.networkTwo[76].batteryStats 	"time (s)" 	5010.0036836841
scalar Forest.networkTwo[76].batteryStats 	"account 0" 	334.3290033153
scalar Forest.networkTwo[76].applSensor 	"activity duration" 	-1
attr unit  s
scalar Forest.networkTwo[76].applSensor 	firstPacketGeneration 	-1
attr unit  s
scalar Forest.networkTwo[76].applSensor 	lastPacketReception 	-2
attr unit  s
scalar Forest.networkTwo[76].applSensor 	nbPacketsSent 	2500
scalar Forest.networkTwo[76].applSensor 	nbPacketsReceived 	0
statistic Forest.networkTwo[76].applSensor 	latency
field count 0
field mean 0
field stddev -nan
field sum 0
field sqrsum 0
field min 0
field max 0
scalar Forest.networkTwo[77].nic.mac 	nbTxFrames 	4437
scalar Forest.networkTwo[77].nic.mac 	nbRxFrames 	15450
scalar Forest.networkTwo[77].nic.mac 	nbDroppedFrames 	567
scalar Forest.networkTwo[77].nic.mac 	nbMissedAcks 	0
scalar Forest.networkTwo[77].nic.mac 	nbRecvdAcks 	0
scalar Forest.networkTwo[77].nic.mac 	nbTxAcks 	0
scalar Forest.networkTwo[77].nic.mac 	nbDuplicates 	0
scalar Forest.networkTwo[77].nic.mac 	meanBackoff 	0.0026660835726859
scalar Forest.networkTwo[77].nic.mac 	nbBackoffs 	10793
scalar Forest.networkTwo[77].nic.mac 	backoffDurations 	28.775039999999
scalar Forest.networkTwo[77].nic.phy 	nbFramesWithInterference 	12663
scalar Forest.networkTwo[77].nic.phy 	nbFramesWithoutInterference 	113168
scalar Forest.networkTwo[77].nic.phy 	nbFramesWithInterferencePartial 	5334
scalar Forest.networkTwo[77].nic.phy 	nbFramesWithoutInterferencePartial 	9
scalar Forest.networkTwo[77].nic.phy 	nbFramesWithInterferenceDropped 	2849
scalar Forest.networkTwo[77].nic.phy 	nbFramesWithoutInterferenceDropped 	95
scalar Forest.networkTwo[77].netwl 	nbDataPacketsForwarded 	2504
scalar Forest.networkTwo[77].netwl 	nbDataPacketsReceived 	0
scalar Forest.networkTwo[77].netwl 	nbDataPacketsSent 	2500
scalar Forest.networkTwo[77].netwl 	nbDuplicatedFloodsReceived 	24165
scalar Forest.networkTwo[77].netwl 	nbFloodsSent 	0
scalar Forest.networkTwo[77].netwl 	nbPureUnicastSent 	2500
scalar Forest.networkTwo[77].netwl 	nbRouteFloodsSent 	0
scalar Forest.networkTwo[77].netwl 	nbRouteFloodsReceived 	5
scalar Forest.networkTwo[77].netwl 	nbUnicastFloodForwarded 	2499
scalar Forest.networkTwo[77].netwl 	nbPureUnicastForwarded 	0
scalar Forest.networkTwo[77].netwl 	nbGetRouteFailures 	0
scalar Forest.networkTwo[77].netwl 	nbRoutesRecorded 	1
scalar Forest.networkTwo[77].netwl 	meanNbHops 	-nan
scalar Forest.networkTwo[77].tranl 	nbAggrPktReceived 	0
scalar Forest.networkTwo[77].tranl 	"nbAggrPktSentDown " 	0
scalar Forest.networkTwo[77].batteryStats 	nominal 	10800000
attr unit  mW-s
scalar Forest.networkTwo[77].batteryStats 	total 	282877.66646408
attr unit  mW-s
scalar Forest.networkTwo[77].batteryStats 	lifetime 	-1
attr unit  s
scalar Forest.networkTwo[77].batteryStats 	"Mean power consumption" 	56.46256656164
attr unit  mW
scalar Forest.networkTwo[77].batteryStats 	"num devices" 	2
scalar Forest.networkTwo[77].batteryStats 	"physical layer" 	0
scalar Forest.networkTwo[77].batteryStats 	"device total (mWs)" 	282543.33745578
scalar Forest.networkTwo[77].batteryStats 	account 	0
scalar Forest.networkTwo[77].batteryStats 	"energy (mWs)" 	0
scalar Forest.networkTwo[77].batteryStats 	"time (s)" 	0
scalar Forest.networkTwo[77].batteryStats 	"account 0" 	0
scalar Forest.networkTwo[77].batteryStats 	account 	1
scalar Forest.networkTwo[77].batteryStats 	"energy (mWs)" 	282187.85462058
scalar Forest.networkTwo[77].batteryStats 	"time (s)" 	5003.3307556841
scalar Forest.networkTwo[77].batteryStats 	"account 1" 	282187.85462058
scalar Forest.networkTwo[77].batteryStats 	account 	2
scalar Forest.networkTwo[77].batteryStats 	"energy (mWs)" 	259.38806399997
scalar Forest.networkTwo[77].batteryStats 	"time (s)" 	4.96912
scalar Forest.networkTwo[77].batteryStats 	"account 2" 	259.38806399997
scalar Forest.networkTwo[77].batteryStats 	account 	3
scalar Forest.networkTwo[77].batteryStats 	"energy (mWs)" 	96.094771199991
scalar Forest.networkTwo[77].batteryStats 	"time (s)" 	1.703808
scalar Forest.networkTwo[77].batteryStats 	"account 3" 	96.094771199991
scalar Forest.networkTwo[77].batteryStats 	account 	4
scalar Forest.networkTwo[77].batteryStats 	"energy (mWs)" 	0
scalar Forest.networkTwo[77].batteryStats 	"time (s)" 	0
scalar Forest.networkTwo[77].batteryStats 	"account 4" 	0
scalar Forest.networkTwo[77].batteryStats 	TemperatureSensorLayer 	1
scalar Forest.networkTwo[77].batteryStats 	"device total (mWs)" 	334.32900331529
scalar Forest.networkTwo[77].batteryStats 	account 	0
scalar Forest.networkTwo[77].batteryStats 	"energy (mWs)" 	334.32900331529
scalar Forest.networkTwo[77].batteryStats 	"time (s)" 	5010.0036836841
scalar Forest.networkTwo[77].batteryStats 	"account 0" 	334.32900331529
scalar Forest.networkTwo[77].applSensor 	"activity duration" 	-1
attr unit  s
scalar Forest.networkTwo[77].applSensor 	firstPacketGeneration 	-1
attr unit  s
scalar Forest.networkTwo[77].applSensor 	lastPacketReception 	-2
attr unit  s
scalar Forest.networkTwo[77].applSensor 	nbPacketsSent 	2500
scalar Forest.networkTwo[77].applSensor 	nbPacketsReceived 	0
statistic Forest.networkTwo[77].applSensor 	latency
field count 0
field mean 0
field stddev -nan
field sum 0
field sqrsum 0
field min 0
field max 0
scalar Forest.networkTwo[78].nic.mac 	nbTxFrames 	4462
scalar Forest.networkTwo[78].nic.mac 	nbRxFrames 	14884
scalar Forest.networkTwo[78].nic.mac 	nbDroppedFrames 	542
scalar Forest.networkTwo[78].nic.mac 	nbMissedAcks 	0
scalar Forest.networkTwo[78].nic.mac 	nbRecvdAcks 	0
scalar Forest.networkTwo[78].nic.mac 	nbTxAcks 	0
scalar Forest.networkTwo[78].nic.mac 	nbDuplicates 	0
scalar Forest.networkTwo[78].nic.mac 	meanBackoff 	0.0026532678223787
scalar Forest.networkTwo[78].nic.mac 	nbBackoffs 	10787
scalar Forest.networkTwo[78].nic.mac 	backoffDurations 	28.620799999999
scalar Forest.networkTwo[78].nic.phy 	nbFramesWithInterference 	11906
scalar Forest.networkTwo[78].nic.phy 	nbFramesWithoutInterference 	101519
scalar Forest.networkTwo[78].nic.phy 	nbFramesWithInterferencePartial 	4882
scalar Forest.networkTwo[78].nic.phy 	nbFramesWithoutInterferencePartial 	9
scalar Forest.networkTwo[78].nic.phy 	nbFramesWithInterferenceDropped 	2474
scalar Forest.networkTwo[78].nic.phy 	nbFramesWithoutInterferenceDropped 	86
scalar Forest.networkTwo[78].netwl 	nbDataPacketsForwarded 	2504
scalar Forest.networkTwo[78].netwl 	nbDataPacketsReceived 	0
scalar Forest.networkTwo[78].netwl 	nbDataPacketsSent 	2500
scalar Forest.networkTwo[78].netwl 	nbDuplicatedFloodsReceived 	23329
scalar Forest.networkTwo[78].netwl 	nbFloodsSent 	0
scalar Forest.networkTwo[78].netwl 	nbPureUnicastSent 	2500
scalar Forest.networkTwo[78].netwl 	nbRouteFloodsSent 	0
scalar Forest.networkTwo[78].netwl 	nbRouteFloodsReceived 	5
scalar Forest.networkTwo[78].netwl 	nbUnicastFloodForwarded 	2499
scalar Forest.networkTwo[78].netwl 	nbPureUnicastForwarded 	0
scalar Forest.networkTwo[78].netwl 	nbGetRouteFailures 	0
scalar Forest.networkTwo[78].netwl 	nbRoutesRecorded 	1
scalar Forest.networkTwo[78].netwl 	meanNbHops 	-nan
scalar Forest.networkTwo[78].tranl 	nbAggrPktReceived 	0
scalar Forest.networkTwo[78].tranl 	"nbAggrPktSentDown " 	0
scalar Forest.networkTwo[78].batteryStats 	nominal 	10800000
attr unit  mW-s
scalar Forest.networkTwo[78].batteryStats 	total 	282877.54832657
attr unit  mW-s
scalar Forest.networkTwo[78].batteryStats 	lifetime 	-1
attr unit  s
scalar Forest.networkTwo[78].batteryStats 	"Mean power consumption" 	56.462542981317
attr unit  mW
scalar Forest.networkTwo[78].batteryStats 	"num devices" 	2
scalar Forest.networkTwo[78].batteryStats 	"physical layer" 	0
scalar Forest.networkTwo[78].batteryStats 	"device total (mWs)" 	282543.21931819
scalar Forest.networkTwo[78].batteryStats 	account 	0
scalar Forest.networkTwo[78].batteryStats 	"energy (mWs)" 	0
scalar Forest.networkTwo[78].batteryStats 	"time (s)" 	0
scalar Forest.networkTwo[78].batteryStats 	"account 0" 	0
scalar Forest.networkTwo[78].batteryStats 	account 	1
scalar Forest.networkTwo[78].batteryStats 	"energy (mWs)" 	282185.72676139
scalar Forest.networkTwo[78].batteryStats 	"time (s)" 	5003.2930276841
scalar Forest.networkTwo[78].batteryStats 	"account 1" 	282185.72676139
scalar Forest.networkTwo[78].batteryStats 	account 	2
scalar Forest.networkTwo[78].batteryStats 	"energy (mWs)" 	260.85634559997
scalar Forest.networkTwo[78].batteryStats 	"time (s)" 	4.997248
scalar Forest.networkTwo[78].batteryStats 	"account 2" 	260.85634559997
scalar Forest.networkTwo[78].batteryStats 	account 	3
scalar Forest.networkTwo[78].batteryStats 	"energy (mWs)" 	96.636211199991
scalar Forest.networkTwo[78].batteryStats 	"time (s)" 	1.713408
scalar Forest.networkTwo[78].batteryStats 	"account 3" 	96.636211199991
scalar Forest.networkTwo[78].batteryStats 	account 	4
scalar Forest.networkTwo[78].batteryStats 	"energy (mWs)" 	0
scalar Forest.networkTwo[78].batteryStats 	"time (s)" 	0
scalar Forest.networkTwo[78].batteryStats 	"account 4" 	0
scalar Forest.networkTwo[78].batteryStats 	TemperatureSensorLayer 	1
scalar Forest.networkTwo[78].batteryStats 	"device total (mWs)" 	334.32900331529
scalar Forest.networkTwo[78].batteryStats 	account 	0
scalar Forest.networkTwo[78].batteryStats 	"energy (mWs)" 	334.32900331529
scalar Forest.networkTwo[78].batteryStats 	"time (s)" 	5010.0036836841
scalar Forest.networkTwo[78].batteryStats 	"account 0" 	334.32900331529
scalar Forest.networkTwo[78].applSensor 	"activity duration" 	-1
attr unit  s
scalar Forest.networkTwo[78].applSensor 	firstPacketGeneration 	-1
attr unit  s
scalar Forest.networkTwo[78].applSensor 	lastPacketReception 	-2
attr unit  s
scalar Forest.networkTwo[78].applSensor 	nbPacketsSent 	2500
scalar Forest.networkTwo[78].applSensor 	nbPacketsReceived 	0
statistic Forest.networkTwo[78].applSensor 	latency
field count 0
field mean 0
field stddev -nan
field sum 0
field sqrsum 0
field min 0
field max 0
scalar Forest.networkTwo[79].nic.mac 	nbTxFrames 	4479
scalar Forest.networkTwo[79].nic.mac 	nbRxFrames 	13669
scalar Forest.networkTwo[79].nic.mac 	nbDroppedFrames 	525
scalar Forest.networkTwo[79].nic.mac 	nbMissedAcks 	0
scalar Forest.networkTwo[79].nic.mac 	nbRecvdAcks 	0
scalar Forest.networkTwo[79].nic.mac 	nbTxAcks 	0
scalar Forest.networkTwo[79].nic.mac 	nbDuplicates 	0
scalar Forest.networkTwo[79].nic.mac 	meanBackoff 	0.0026529693593314
scalar Forest.networkTwo[79].nic.mac 	nbBackoffs 	10770
scalar Forest.networkTwo[79].nic.mac 	backoffDurations 	28.572479999999
scalar Forest.networkTwo[79].nic.phy 	nbFramesWithInterference 	11031
scalar Forest.networkTwo[79].nic.phy 	nbFramesWithoutInterference 	85738
scalar Forest.networkTwo[79].nic.phy 	nbFramesWithInterferencePartial 	4014
scalar Forest.networkTwo[79].nic.phy 	nbFramesWithoutInterferencePartial 	7
scalar Forest.networkTwo[79].nic.phy 	nbFramesWithInterferenceDropped 	2030
scalar Forest.networkTwo[79].nic.phy 	nbFramesWithoutInterferenceDropped 	117
scalar Forest.networkTwo[79].netwl 	nbDataPacketsForwarded 	2504
scalar Forest.networkTwo[79].netwl 	nbDataPacketsReceived 	0
scalar Forest.networkTwo[79].netwl 	nbDataPacketsSent 	2500
scalar Forest.networkTwo[79].netwl 	nbDuplicatedFloodsReceived 	21518
scalar Forest.networkTwo[79].netwl 	nbFloodsSent 	0
scalar Forest.networkTwo[79].netwl 	nbPureUnicastSent 	2500
scalar Forest.networkTwo[79].netwl 	nbRouteFloodsSent 	0
scalar Forest.networkTwo[79].netwl 	nbRouteFloodsReceived 	5
scalar Forest.networkTwo[79].netwl 	nbUnicastFloodForwarded 	2499
scalar Forest.networkTwo[79].netwl 	nbPureUnicastForwarded 	0
scalar Forest.networkTwo[79].netwl 	nbGetRouteFailures 	0
scalar Forest.networkTwo[79].netwl 	nbRoutesRecorded 	1
scalar Forest.networkTwo[79].netwl 	meanNbHops 	-nan
scalar Forest.networkTwo[79].tranl 	nbAggrPktReceived 	0
scalar Forest.networkTwo[79].tranl 	"nbAggrPktSentDown " 	0
scalar Forest.networkTwo[79].batteryStats 	nominal 	10800000
attr unit  mW-s
scalar Forest.networkTwo[79].batteryStats 	total 	282877.46808962
attr unit  mW-s
scalar Forest.networkTwo[79].batteryStats 	lifetime 	-1
attr unit  s
scalar Forest.networkTwo[79].batteryStats 	"Mean power consumption" 	56.462526965969
attr unit  mW
scalar Forest.networkTwo[79].batteryStats 	"num devices" 	2
scalar Forest.networkTwo[79].batteryStats 	"physical layer" 	0
scalar Forest.networkTwo[79].batteryStats 	"device total (mWs)" 	282543.13908139
scalar Forest.networkTwo[79].batteryStats 	account 	0
scalar Forest.networkTwo[79].batteryStats 	"energy (mWs)" 	0
scalar Forest.networkTwo[79].batteryStats 	"time (s)" 	0
scalar Forest.networkTwo[79].batteryStats 	"account 0" 	0
scalar Forest.networkTwo[79].batteryStats 	account 	1
scalar Forest.networkTwo[79].batteryStats 	"energy (mWs)" 	282184.28111659
scalar Forest.networkTwo[79].batteryStats 	"time (s)" 	5003.2673956841
scalar Forest.networkTwo[79].batteryStats 	"account 1" 	282184.28111659
scalar Forest.networkTwo[79].batteryStats 	account 	2
scalar Forest.networkTwo[79].batteryStats 	"energy (mWs)" 	261.85357439997
scalar Forest.networkTwo[79].batteryStats 	"time (s)" 	5.016352
scalar Forest.networkTwo[79].batteryStats 	"account 2" 	261.85357439997
scalar Forest.networkTwo[79].batteryStats 	account 	3
scalar Forest.networkTwo[79].batteryStats 	"energy (mWs)" 	97.004390399991
scalar Forest.networkTwo[79].batteryStats 	"time (s)" 	1.719936
scalar Forest.networkTwo[79].batteryStats 	"account 3" 	97.004390399991
scalar Forest.networkTwo[79].batteryStats 	account 	4
scalar Forest.networkTwo[79].batteryStats 	"energy (mWs)" 	0
scalar Forest.networkTwo[79].batteryStats 	"time (s)" 	0
scalar Forest.networkTwo[79].batteryStats 	"account 4" 	0
scalar Forest.networkTwo[79].batteryStats 	TemperatureSensorLayer 	1
scalar Forest.networkTwo[79].batteryStats 	"device total (mWs)" 	334.32900331529
scalar Forest.networkTwo[79].batteryStats 	account 	0
scalar Forest.networkTwo[79].batteryStats 	"energy (mWs)" 	334.32900331529
scalar Forest.networkTwo[79].batteryStats 	"time (s)" 	5010.0036836841
scalar Forest.networkTwo[79].batteryStats 	"account 0" 	334.32900331529
scalar Forest.networkTwo[79].applSensor 	"activity duration" 	-1
attr unit  s
scalar Forest.networkTwo[79].applSensor 	firstPacketGeneration 	-1
attr unit  s
scalar Forest.networkTwo[79].applSensor 	lastPacketReception 	-2
attr unit  s
scalar Forest.networkTwo[79].applSensor 	nbPacketsSent 	2500
scalar Forest.networkTwo[79].applSensor 	nbPacketsReceived 	0
statistic Forest.networkTwo[79].applSensor 	latency
field count 0
field mean 0
field stddev -nan
field sum 0
field sqrsum 0
field min 0
field max 0
scalar Forest.networkTwo[80].nic.mac 	nbTxFrames 	4507
scalar Forest.networkTwo[80].nic.mac 	nbRxFrames 	12192
scalar Forest.networkTwo[80].nic.mac 	nbDroppedFrames 	497
scalar Forest.networkTwo[80].nic.mac 	nbMissedAcks 	0
scalar Forest.networkTwo[80].nic.mac 	nbRecvdAcks 	0
scalar Forest.networkTwo[80].nic.mac 	nbTxAcks 	0
scalar Forest.networkTwo[80].nic.mac 	nbDuplicates 	0
scalar Forest.networkTwo[80].nic.mac 	meanBackoff 	0.0025849209932279
scalar Forest.networkTwo[80].nic.mac 	nbBackoffs 	10632
scalar Forest.networkTwo[80].nic.mac 	backoffDurations 	27.482879999999
scalar Forest.networkTwo[80].nic.phy 	nbFramesWithInterference 	9807
scalar Forest.networkTwo[80].nic.phy 	nbFramesWithoutInterference 	68902
scalar Forest.networkTwo[80].nic.phy 	nbFramesWithInterferencePartial 	2807
scalar Forest.networkTwo[80].nic.phy 	nbFramesWithoutInterferencePartial 	8
scalar Forest.networkTwo[80].nic.phy 	nbFramesWithInterferenceDropped 	1676
scalar Forest.networkTwo[80].nic.phy 	nbFramesWithoutInterferenceDropped 	92
scalar Forest.networkTwo[80].netwl 	nbDataPacketsForwarded 	2504
scalar Forest.networkTwo[80].netwl 	nbDataPacketsReceived 	0
scalar Forest.networkTwo[80].netwl 	nbDataPacketsSent 	2500
scalar Forest.networkTwo[80].netwl 	nbDuplicatedFloodsReceived 	18889
scalar Forest.networkTwo[80].netwl 	nbFloodsSent 	0
scalar Forest.networkTwo[80].netwl 	nbPureUnicastSent 	2500
scalar Forest.networkTwo[80].netwl 	nbRouteFloodsSent 	0
scalar Forest.networkTwo[80].netwl 	nbRouteFloodsReceived 	5
scalar Forest.networkTwo[80].netwl 	nbUnicastFloodForwarded 	2499
scalar Forest.networkTwo[80].netwl 	nbPureUnicastForwarded 	0
scalar Forest.networkTwo[80].netwl 	nbGetRouteFailures 	0
scalar Forest.networkTwo[80].netwl 	nbRoutesRecorded 	1
scalar Forest.networkTwo[80].netwl 	meanNbHops 	-nan
scalar Forest.networkTwo[80].tranl 	nbAggrPktReceived 	0
scalar Forest.networkTwo[80].tranl 	"nbAggrPktSentDown " 	0
scalar Forest.networkTwo[80].batteryStats 	nominal 	10800000
attr unit  mW-s
scalar Forest.networkTwo[80].batteryStats 	total 	282877.33691544
attr unit  mW-s
scalar Forest.networkTwo[80].batteryStats 	lifetime 	-1
attr unit  s
scalar Forest.networkTwo[80].batteryStats 	"Mean power consumption" 	56.462500783516
attr unit  mW
scalar Forest.networkTwo[80].batteryStats 	"num devices" 	2
scalar Forest.networkTwo[80].batteryStats 	"physical layer" 	0
scalar Forest.networkTwo[80].batteryStats 	"device total (mWs)" 	282543.00790699
scalar Forest.networkTwo[80].batteryStats 	account 	0
scalar Forest.networkTwo[80].batteryStats 	"energy (mWs)" 	0
scalar Forest.networkTwo[80].batteryStats 	"time (s)" 	0
scalar Forest.networkTwo[80].batteryStats 	"account 0" 	0
scalar Forest.networkTwo[80].batteryStats 	account 	1
scalar Forest.networkTwo[80].batteryStats 	"energy (mWs)" 	282181.91321899
scalar Forest.networkTwo[80].batteryStats 	"time (s)" 	5003.2254116841
scalar Forest.networkTwo[80].batteryStats 	"account 1" 	282181.91321899
scalar Forest.networkTwo[80].batteryStats 	account 	2
scalar Forest.networkTwo[80].batteryStats 	"energy (mWs)" 	263.48388479997
scalar Forest.networkTwo[80].batteryStats 	"time (s)" 	5.047584
scalar Forest.networkTwo[80].batteryStats 	"account 2" 	263.48388479997
scalar Forest.networkTwo[80].batteryStats 	account 	3
scalar Forest.networkTwo[80].batteryStats 	"energy (mWs)" 	97.610803199991
scalar Forest.networkTwo[80].batteryStats 	"time (s)" 	1.730688
scalar Forest.networkTwo[80].batteryStats 	"account 3" 	97.610803199991
scalar Forest.networkTwo[80].batteryStats 	account 	4
scalar Forest.networkTwo[80].batteryStats 	"energy (mWs)" 	0
scalar Forest.networkTwo[80].batteryStats 	"time (s)" 	0
scalar Forest.networkTwo[80].batteryStats 	"account 4" 	0
scalar Forest.networkTwo[80].batteryStats 	TemperatureSensorLayer 	1
scalar Forest.networkTwo[80].batteryStats 	"device total (mWs)" 	334.3290033153
scalar Forest.networkTwo[80].batteryStats 	account 	0
scalar Forest.networkTwo[80].batteryStats 	"energy (mWs)" 	334.3290033153
scalar Forest.networkTwo[80].batteryStats 	"time (s)" 	5010.0036836841
scalar Forest.networkTwo[80].batteryStats 	"account 0" 	334.3290033153
scalar Forest.networkTwo[80].applSensor 	"activity duration" 	-1
attr unit  s
scalar Forest.networkTwo[80].applSensor 	firstPacketGeneration 	-1
attr unit  s
scalar Forest.networkTwo[80].applSensor 	lastPacketReception 	-2
attr unit  s
scalar Forest.networkTwo[80].applSensor 	nbPacketsSent 	2500
scalar Forest.networkTwo[80].applSensor 	nbPacketsReceived 	0
statistic Forest.networkTwo[80].applSensor 	latency
field count 0
field mean 0
field stddev -nan
field sum 0
field sqrsum 0
field min 0
field max 0
