version 2
run Nodes_in_grid-1-20130702-15:53:28-11206
attr configname Nodes_in_grid
attr datetime 20130702-15:53:28
attr experiment Nodes_in_grid
attr inifile omnetpp.ini
attr iterationvars "$0=5000, $1=5000, $2=5000, $3=5000, $4=5000, $5=5000, $6=5000, $7=5000, $8=5000, $9=0, $10=0, $11=0, $12=0, $13=0, $14=0, $15=0, $16=0, $17=0, $18=0, $19=2, $plan=2, $sensitivity=-94dBm, $20=0"
attr iterationvars2 "$0=5000, $1=5000, $2=5000, $3=5000, $4=5000, $5=5000, $6=5000, $7=5000, $8=5000, $9=0, $10=0, $11=0, $12=0, $13=0, $14=0, $15=0, $16=0, $17=0, $18=0, $19=2, $plan=2, $sensitivity=-94dBm, $20=0, $repetition=0"
attr measurement "$0=5000, $1=5000, $2=5000, $3=5000, $4=5000, $5=5000, $6=5000, $7=5000, $8=5000, $9=0, $10=0, $11=0, $12=0, $13=0, $14=0, $15=0, $16=0, $17=0, $18=0, $19=2, $plan=2, $sensitivity=-94dBm, $20=0"
attr network Forest
attr plan 2
attr processid 11206
attr repetition 0
attr replication #0
attr resultdir results
attr runnumber 1
attr seedset 1
attr sensitivity -94dBm

scalar . 	plan 	2
scalar . 	sensitivity 	-94
attr unit  dBm
scalar Forest.networkOne[0].nic.mac 	nbTxFrames 	5
scalar Forest.networkOne[0].nic.mac 	nbRxFrames 	12465
scalar Forest.networkOne[0].nic.mac 	nbDroppedFrames 	0
scalar Forest.networkOne[0].nic.mac 	nbMissedAcks 	0
scalar Forest.networkOne[0].nic.mac 	nbRecvdAcks 	0
scalar Forest.networkOne[0].nic.mac 	nbTxAcks 	0
scalar Forest.networkOne[0].nic.mac 	nbDuplicates 	0
scalar Forest.networkOne[0].nic.mac 	meanBackoff 	0.000512
scalar Forest.networkOne[0].nic.mac 	nbBackoffs 	5
scalar Forest.networkOne[0].nic.mac 	backoffDurations 	0.00256
scalar Forest.networkOne[0].nic.phy 	nbFramesWithInterference 	32
scalar Forest.networkOne[0].nic.phy 	nbFramesWithoutInterference 	18835
scalar Forest.networkOne[0].nic.phy 	nbFramesWithInterferencePartial 	1
scalar Forest.networkOne[0].nic.phy 	nbFramesWithoutInterferencePartial 	0
scalar Forest.networkOne[0].nic.phy 	nbFramesWithInterferenceDropped 	2
scalar Forest.networkOne[0].nic.phy 	nbFramesWithoutInterferenceDropped 	1
scalar Forest.networkOne[0].netwl 	nbDataPacketsForwarded 	0
scalar Forest.networkOne[0].netwl 	nbDataPacketsReceived 	12451
scalar Forest.networkOne[0].netwl 	nbDataPacketsSent 	0
scalar Forest.networkOne[0].netwl 	nbDuplicatedFloodsReceived 	14
scalar Forest.networkOne[0].netwl 	nbFloodsSent 	5
scalar Forest.networkOne[0].netwl 	nbPureUnicastSent 	0
scalar Forest.networkOne[0].netwl 	nbRouteFloodsSent 	5
scalar Forest.networkOne[0].netwl 	nbRouteFloodsReceived 	0
scalar Forest.networkOne[0].netwl 	nbUnicastFloodForwarded 	0
scalar Forest.networkOne[0].netwl 	nbPureUnicastForwarded 	0
scalar Forest.networkOne[0].netwl 	nbGetRouteFailures 	0
scalar Forest.networkOne[0].netwl 	nbRoutesRecorded 	0
scalar Forest.networkOne[0].netwl 	meanNbHops 	0.74363504939362
scalar Forest.networkOne[0].tranl 	nbAggrPktReceived 	0
scalar Forest.networkOne[0].tranl 	"nbAggrPktSentDown " 	0
scalar Forest.networkOne[0].batteryStats 	nominal 	10800000
attr unit  mW-s
scalar Forest.networkOne[0].batteryStats 	total 	282518.16578218
attr unit  mW-s
scalar Forest.networkOne[0].batteryStats 	lifetime 	-1
attr unit  s
scalar Forest.networkOne[0].batteryStats 	"Mean power consumption" 	56.390552790937
attr unit  mW
scalar Forest.networkOne[0].batteryStats 	"num devices" 	2
scalar Forest.networkOne[0].batteryStats 	"physical layer" 	0
scalar Forest.networkOne[0].batteryStats 	"device total (mWs)" 	282513.65675833
scalar Forest.networkOne[0].batteryStats 	account 	0
scalar Forest.networkOne[0].batteryStats 	"energy (mWs)" 	5.7772385901531e-05
scalar Forest.networkOne[0].batteryStats 	"time (s)" 	0.917021998437
scalar Forest.networkOne[0].batteryStats 	"account 0" 	5.7772385901531e-05
scalar Forest.networkOne[0].batteryStats 	account 	1
scalar Forest.networkOne[0].batteryStats 	"energy (mWs)" 	282513.26936075
scalar Forest.networkOne[0].batteryStats 	"time (s)" 	5009.1005205807
scalar Forest.networkOne[0].batteryStats 	"account 1" 	282513.26936075
scalar Forest.networkOne[0].batteryStats 	account 	2
scalar Forest.networkOne[0].batteryStats 	"energy (mWs)" 	0.275616
scalar Forest.networkOne[0].batteryStats 	"time (s)" 	0.00528
scalar Forest.networkOne[0].batteryStats 	"account 2" 	0.275616
scalar Forest.networkOne[0].batteryStats 	account 	3
scalar Forest.networkOne[0].batteryStats 	"energy (mWs)" 	0.1117238016
scalar Forest.networkOne[0].batteryStats 	"time (s)" 	0.003712
scalar Forest.networkOne[0].batteryStats 	"account 3" 	0.1117238016
scalar Forest.networkOne[0].batteryStats 	account 	4
scalar Forest.networkOne[0].batteryStats 	"energy (mWs)" 	0
scalar Forest.networkOne[0].batteryStats 	"time (s)" 	0
scalar Forest.networkOne[0].batteryStats 	"account 4" 	0
scalar Forest.networkOne[0].batteryStats 	TemperatureSensorLayer 	1
scalar Forest.networkOne[0].batteryStats 	"device total (mWs)" 	4.5090238811212
scalar Forest.networkOne[0].batteryStats 	account 	0
scalar Forest.networkOne[0].batteryStats 	"energy (mWs)" 	4.5090238811212
scalar Forest.networkOne[0].batteryStats 	"time (s)" 	5010.0265345792
scalar Forest.networkOne[0].batteryStats 	"account 0" 	4.5090238811212
scalar Forest.networkOne[0].applSensor 	latency10 	0.0044452502685285
attr unit  s
statistic Forest.networkOne[0].applSensor 	10
field count 4655
field mean 0.0044452502685285
field stddev 0.0010473216216455
field sum 20.69264
field sqrsum 0.097088855040003
field min 0.003232
field max 0.020832
scalar Forest.networkOne[0].applSensor 	latency13 	0.013279524595093
attr unit  s
statistic Forest.networkOne[0].applSensor 	13
field count 918
field mean 0.013279524595093
field stddev 0.0017334167431644
field sum 12.190603578295
field sqrsum 0.16464076076322
field min 0.009696
field max 0.024802392312
scalar Forest.networkOne[0].applSensor 	latency16 	0.017798855309703
attr unit  s
statistic Forest.networkOne[0].applSensor 	16
field count 656
field mean 0.017798855309703
field stddev 0.0021804659613327
field sum 11.676049083165
field sqrsum 0.21093446105483
field min 0.012928
field max 0.031592977257
scalar Forest.networkOne[0].applSensor 	latency37 	0.0044610827811829
attr unit  s
statistic Forest.networkOne[0].applSensor 	37
field count 1837
field mean 0.0044610827811829
field stddev 0.00098773496877909
field sum 8.195009069033
field sqrsum 0.038349852846157
field min 0.003232
field max 0.012192
scalar Forest.networkOne[0].applSensor 	latency40 	0.0088730156295339
attr unit  s
statistic Forest.networkOne[0].applSensor 	40
field count 1341
field mean 0.0088730156295339
field stddev 0.0014400918998867
field sum 11.898713959205
field sqrsum 0.10835645360274
field min 0.006464
field max 0.019264
scalar Forest.networkOne[0].applSensor 	latency43 	0.013288488235157
attr unit  s
statistic Forest.networkOne[0].applSensor 	43
field count 928
field mean 0.013288488235157
field stddev 0.0019522385233319
field sum 12.331717082226
field sqrsum 0.16740289244504
field min 0.009696
field max 0.029856
scalar Forest.networkOne[0].applSensor 	latency64 	0.0088862072572625
attr unit  s
statistic Forest.networkOne[0].applSensor 	64
field count 1280
field mean 0.0088862072572625
field stddev 0.0015551181514176
field sum 11.374345289296
field sqrsum 0.10416791361892
field min 0.006464
field max 0.030144
scalar Forest.networkOne[0].applSensor 	latency67 	0.0090264060423281
attr unit  s
statistic Forest.networkOne[0].applSensor 	67
field count 765
field mean 0.0090264060423281
field stddev 0.001678035577748
field sum 6.905200622381
field sqrsum 0.064480418419091
field min 0.006464
field max 0.024398868602
scalar Forest.networkOne[0].applSensor 	latency70 	0.017942017769169
attr unit  s
statistic Forest.networkOne[0].applSensor 	70
field count 71
field mean 0.017942017769169
field stddev 0.0020130831185499
field sum 1.273883261611
field sqrsum 0.023139711370625
field min 0.014528
field max 0.025408
scalar Forest.networkOne[0].applSensor 	"activity duration" 	4999.1334819523
attr unit  s
scalar Forest.networkOne[0].applSensor 	firstPacketGeneration 	10.208124447772
attr unit  s
scalar Forest.networkOne[0].applSensor 	lastPacketReception 	5009.3416064001
attr unit  s
scalar Forest.networkOne[0].applSensor 	nbPacketsSent 	0
scalar Forest.networkOne[0].applSensor 	nbPacketsReceived 	12451
statistic Forest.networkOne[0].applSensor 	latency
field count 12451
field mean 0.0077534464657626
field stddev 0.0042986674746315
field sum 96.53816194521
field sqrsum 0.97856131916061
field min 0.003232
field max 0.031592977257
scalar Forest.networkOne[1].nic.mac 	nbTxFrames 	0
scalar Forest.networkOne[1].nic.mac 	nbRxFrames 	0
scalar Forest.networkOne[1].nic.mac 	nbDroppedFrames 	0
scalar Forest.networkOne[1].nic.mac 	nbMissedAcks 	0
scalar Forest.networkOne[1].nic.mac 	nbRecvdAcks 	0
scalar Forest.networkOne[1].nic.mac 	nbTxAcks 	0
scalar Forest.networkOne[1].nic.mac 	nbDuplicates 	0
scalar Forest.networkOne[1].nic.mac 	meanBackoff 	0
scalar Forest.networkOne[1].nic.mac 	nbBackoffs 	0
scalar Forest.networkOne[1].nic.mac 	backoffDurations 	0
scalar Forest.networkOne[1].nic.phy 	nbFramesWithInterference 	0
scalar Forest.networkOne[1].nic.phy 	nbFramesWithoutInterference 	0
scalar Forest.networkOne[1].nic.phy 	nbFramesWithInterferencePartial 	0
scalar Forest.networkOne[1].nic.phy 	nbFramesWithoutInterferencePartial 	0
scalar Forest.networkOne[1].nic.phy 	nbFramesWithInterferenceDropped 	0
scalar Forest.networkOne[1].nic.phy 	nbFramesWithoutInterferenceDropped 	0
scalar Forest.networkOne[1].netwl 	nbDataPacketsForwarded 	0
scalar Forest.networkOne[1].netwl 	nbDataPacketsReceived 	0
scalar Forest.networkOne[1].netwl 	nbDataPacketsSent 	0
scalar Forest.networkOne[1].netwl 	nbDuplicatedFloodsReceived 	0
scalar Forest.networkOne[1].netwl 	nbFloodsSent 	0
scalar Forest.networkOne[1].netwl 	nbPureUnicastSent 	0
scalar Forest.networkOne[1].netwl 	nbRouteFloodsSent 	0
scalar Forest.networkOne[1].netwl 	nbRouteFloodsReceived 	0
scalar Forest.networkOne[1].netwl 	nbUnicastFloodForwarded 	0
scalar Forest.networkOne[1].netwl 	nbPureUnicastForwarded 	0
scalar Forest.networkOne[1].netwl 	nbGetRouteFailures 	0
scalar Forest.networkOne[1].netwl 	nbRoutesRecorded 	0
scalar Forest.networkOne[1].netwl 	meanNbHops 	-nan
scalar Forest.networkOne[1].tranl 	nbAggrPktReceived 	0
scalar Forest.networkOne[1].tranl 	"nbAggrPktSentDown " 	0
scalar Forest.networkOne[1].batteryStats 	nominal 	10800000
attr unit  mW-s
scalar Forest.networkOne[1].batteryStats 	total 	4.8246555067599
attr unit  mW-s
scalar Forest.networkOne[1].batteryStats 	lifetime 	-1
attr unit  s
scalar Forest.networkOne[1].batteryStats 	"Mean power consumption" 	0.00096299999081046
attr unit  mW
scalar Forest.networkOne[1].batteryStats 	"num devices" 	2
scalar Forest.networkOne[1].batteryStats 	"physical layer" 	0
scalar Forest.networkOne[1].batteryStats 	"device total (mWs)" 	0.31563167167849
scalar Forest.networkOne[1].batteryStats 	account 	0
scalar Forest.networkOne[1].batteryStats 	"energy (mWs)" 	0.31563167167849
scalar Forest.networkOne[1].batteryStats 	"time (s)" 	5010.0265345792
scalar Forest.networkOne[1].batteryStats 	"account 0" 	0.31563167167849
scalar Forest.networkOne[1].batteryStats 	account 	1
scalar Forest.networkOne[1].batteryStats 	"energy (mWs)" 	0
scalar Forest.networkOne[1].batteryStats 	"time (s)" 	0
scalar Forest.networkOne[1].batteryStats 	"account 1" 	0
scalar Forest.networkOne[1].batteryStats 	account 	2
scalar Forest.networkOne[1].batteryStats 	"energy (mWs)" 	0
scalar Forest.networkOne[1].batteryStats 	"time (s)" 	0
scalar Forest.networkOne[1].batteryStats 	"account 2" 	0
scalar Forest.networkOne[1].batteryStats 	account 	3
scalar Forest.networkOne[1].batteryStats 	"energy (mWs)" 	0
scalar Forest.networkOne[1].batteryStats 	"time (s)" 	0
scalar Forest.networkOne[1].batteryStats 	"account 3" 	0
scalar Forest.networkOne[1].batteryStats 	account 	4
scalar Forest.networkOne[1].batteryStats 	"energy (mWs)" 	0
scalar Forest.networkOne[1].batteryStats 	"time (s)" 	0
scalar Forest.networkOne[1].batteryStats 	"account 4" 	0
scalar Forest.networkOne[1].batteryStats 	TemperatureSensorLayer 	1
scalar Forest.networkOne[1].batteryStats 	"device total (mWs)" 	4.5090238811212
scalar Forest.networkOne[1].batteryStats 	account 	0
scalar Forest.networkOne[1].batteryStats 	"energy (mWs)" 	4.5090238811212
scalar Forest.networkOne[1].batteryStats 	"time (s)" 	5010.0265345792
scalar Forest.networkOne[1].batteryStats 	"account 0" 	4.5090238811212
scalar Forest.networkOne[1].applSensor 	"activity duration" 	-1
attr unit  s
scalar Forest.networkOne[1].applSensor 	firstPacketGeneration 	-1
attr unit  s
scalar Forest.networkOne[1].applSensor 	lastPacketReception 	-2
attr unit  s
scalar Forest.networkOne[1].applSensor 	nbPacketsSent 	0
scalar Forest.networkOne[1].applSensor 	nbPacketsReceived 	0
statistic Forest.networkOne[1].applSensor 	latency
field count 0
field mean 0
field stddev -nan
field sum 0
field sqrsum 0
field min 0
field max 0
scalar Forest.networkOne[2].nic.mac 	nbTxFrames 	0
scalar Forest.networkOne[2].nic.mac 	nbRxFrames 	0
scalar Forest.networkOne[2].nic.mac 	nbDroppedFrames 	0
scalar Forest.networkOne[2].nic.mac 	nbMissedAcks 	0
scalar Forest.networkOne[2].nic.mac 	nbRecvdAcks 	0
scalar Forest.networkOne[2].nic.mac 	nbTxAcks 	0
scalar Forest.networkOne[2].nic.mac 	nbDuplicates 	0
scalar Forest.networkOne[2].nic.mac 	meanBackoff 	0
scalar Forest.networkOne[2].nic.mac 	nbBackoffs 	0
scalar Forest.networkOne[2].nic.mac 	backoffDurations 	0
scalar Forest.networkOne[2].nic.phy 	nbFramesWithInterference 	0
scalar Forest.networkOne[2].nic.phy 	nbFramesWithoutInterference 	0
scalar Forest.networkOne[2].nic.phy 	nbFramesWithInterferencePartial 	0
scalar Forest.networkOne[2].nic.phy 	nbFramesWithoutInterferencePartial 	0
scalar Forest.networkOne[2].nic.phy 	nbFramesWithInterferenceDropped 	0
scalar Forest.networkOne[2].nic.phy 	nbFramesWithoutInterferenceDropped 	0
scalar Forest.networkOne[2].netwl 	nbDataPacketsForwarded 	0
scalar Forest.networkOne[2].netwl 	nbDataPacketsReceived 	0
scalar Forest.networkOne[2].netwl 	nbDataPacketsSent 	0
scalar Forest.networkOne[2].netwl 	nbDuplicatedFloodsReceived 	0
scalar Forest.networkOne[2].netwl 	nbFloodsSent 	0
scalar Forest.networkOne[2].netwl 	nbPureUnicastSent 	0
scalar Forest.networkOne[2].netwl 	nbRouteFloodsSent 	0
scalar Forest.networkOne[2].netwl 	nbRouteFloodsReceived 	0
scalar Forest.networkOne[2].netwl 	nbUnicastFloodForwarded 	0
scalar Forest.networkOne[2].netwl 	nbPureUnicastForwarded 	0
scalar Forest.networkOne[2].netwl 	nbGetRouteFailures 	0
scalar Forest.networkOne[2].netwl 	nbRoutesRecorded 	0
scalar Forest.networkOne[2].netwl 	meanNbHops 	-nan
scalar Forest.networkOne[2].tranl 	nbAggrPktReceived 	0
scalar Forest.networkOne[2].tranl 	"nbAggrPktSentDown " 	0
scalar Forest.networkOne[2].batteryStats 	nominal 	10800000
attr unit  mW-s
scalar Forest.networkOne[2].batteryStats 	total 	4.8246555067599
attr unit  mW-s
scalar Forest.networkOne[2].batteryStats 	lifetime 	-1
attr unit  s
scalar Forest.networkOne[2].batteryStats 	"Mean power consumption" 	0.00096299999081046
attr unit  mW
scalar Forest.networkOne[2].batteryStats 	"num devices" 	2
scalar Forest.networkOne[2].batteryStats 	"physical layer" 	0
scalar Forest.networkOne[2].batteryStats 	"device total (mWs)" 	0.31563167167849
scalar Forest.networkOne[2].batteryStats 	account 	0
scalar Forest.networkOne[2].batteryStats 	"energy (mWs)" 	0.31563167167849
scalar Forest.networkOne[2].batteryStats 	"time (s)" 	5010.0265345792
scalar Forest.networkOne[2].batteryStats 	"account 0" 	0.31563167167849
scalar Forest.networkOne[2].batteryStats 	account 	1
scalar Forest.networkOne[2].batteryStats 	"energy (mWs)" 	0
scalar Forest.networkOne[2].batteryStats 	"time (s)" 	0
scalar Forest.networkOne[2].batteryStats 	"account 1" 	0
scalar Forest.networkOne[2].batteryStats 	account 	2
scalar Forest.networkOne[2].batteryStats 	"energy (mWs)" 	0
scalar Forest.networkOne[2].batteryStats 	"time (s)" 	0
scalar Forest.networkOne[2].batteryStats 	"account 2" 	0
scalar Forest.networkOne[2].batteryStats 	account 	3
scalar Forest.networkOne[2].batteryStats 	"energy (mWs)" 	0
scalar Forest.networkOne[2].batteryStats 	"time (s)" 	0
scalar Forest.networkOne[2].batteryStats 	"account 3" 	0
scalar Forest.networkOne[2].batteryStats 	account 	4
scalar Forest.networkOne[2].batteryStats 	"energy (mWs)" 	0
scalar Forest.networkOne[2].batteryStats 	"time (s)" 	0
scalar Forest.networkOne[2].batteryStats 	"account 4" 	0
scalar Forest.networkOne[2].batteryStats 	TemperatureSensorLayer 	1
scalar Forest.networkOne[2].batteryStats 	"device total (mWs)" 	4.5090238811212
scalar Forest.networkOne[2].batteryStats 	account 	0
scalar Forest.networkOne[2].batteryStats 	"energy (mWs)" 	4.5090238811212
scalar Forest.networkOne[2].batteryStats 	"time (s)" 	5010.0265345792
scalar Forest.networkOne[2].batteryStats 	"account 0" 	4.5090238811212
scalar Forest.networkOne[2].applSensor 	"activity duration" 	-1
attr unit  s
scalar Forest.networkOne[2].applSensor 	firstPacketGeneration 	-1
attr unit  s
scalar Forest.networkOne[2].applSensor 	lastPacketReception 	-2
attr unit  s
scalar Forest.networkOne[2].applSensor 	nbPacketsSent 	0
scalar Forest.networkOne[2].applSensor 	nbPacketsReceived 	0
statistic Forest.networkOne[2].applSensor 	latency
field count 0
field mean 0
field stddev -nan
field sum 0
field sqrsum 0
field min 0
field max 0
scalar Forest.networkOne[3].nic.mac 	nbTxFrames 	0
scalar Forest.networkOne[3].nic.mac 	nbRxFrames 	0
scalar Forest.networkOne[3].nic.mac 	nbDroppedFrames 	0
scalar Forest.networkOne[3].nic.mac 	nbMissedAcks 	0
scalar Forest.networkOne[3].nic.mac 	nbRecvdAcks 	0
scalar Forest.networkOne[3].nic.mac 	nbTxAcks 	0
scalar Forest.networkOne[3].nic.mac 	nbDuplicates 	0
scalar Forest.networkOne[3].nic.mac 	meanBackoff 	0
scalar Forest.networkOne[3].nic.mac 	nbBackoffs 	0
scalar Forest.networkOne[3].nic.mac 	backoffDurations 	0
scalar Forest.networkOne[3].nic.phy 	nbFramesWithInterference 	0
scalar Forest.networkOne[3].nic.phy 	nbFramesWithoutInterference 	0
scalar Forest.networkOne[3].nic.phy 	nbFramesWithInterferencePartial 	0
scalar Forest.networkOne[3].nic.phy 	nbFramesWithoutInterferencePartial 	0
scalar Forest.networkOne[3].nic.phy 	nbFramesWithInterferenceDropped 	0
scalar Forest.networkOne[3].nic.phy 	nbFramesWithoutInterferenceDropped 	0
scalar Forest.networkOne[3].netwl 	nbDataPacketsForwarded 	0
scalar Forest.networkOne[3].netwl 	nbDataPacketsReceived 	0
scalar Forest.networkOne[3].netwl 	nbDataPacketsSent 	0
scalar Forest.networkOne[3].netwl 	nbDuplicatedFloodsReceived 	0
scalar Forest.networkOne[3].netwl 	nbFloodsSent 	0
scalar Forest.networkOne[3].netwl 	nbPureUnicastSent 	0
scalar Forest.networkOne[3].netwl 	nbRouteFloodsSent 	0
scalar Forest.networkOne[3].netwl 	nbRouteFloodsReceived 	0
scalar Forest.networkOne[3].netwl 	nbUnicastFloodForwarded 	0
scalar Forest.networkOne[3].netwl 	nbPureUnicastForwarded 	0
scalar Forest.networkOne[3].netwl 	nbGetRouteFailures 	0
scalar Forest.networkOne[3].netwl 	nbRoutesRecorded 	0
scalar Forest.networkOne[3].netwl 	meanNbHops 	-nan
scalar Forest.networkOne[3].tranl 	nbAggrPktReceived 	0
scalar Forest.networkOne[3].tranl 	"nbAggrPktSentDown " 	0
scalar Forest.networkOne[3].batteryStats 	nominal 	10800000
attr unit  mW-s
scalar Forest.networkOne[3].batteryStats 	total 	4.8246555067599
attr unit  mW-s
scalar Forest.networkOne[3].batteryStats 	lifetime 	-1
attr unit  s
scalar Forest.networkOne[3].batteryStats 	"Mean power consumption" 	0.00096299999081046
attr unit  mW
scalar Forest.networkOne[3].batteryStats 	"num devices" 	2
scalar Forest.networkOne[3].batteryStats 	"physical layer" 	0
scalar Forest.networkOne[3].batteryStats 	"device total (mWs)" 	0.31563167167849
scalar Forest.networkOne[3].batteryStats 	account 	0
scalar Forest.networkOne[3].batteryStats 	"energy (mWs)" 	0.31563167167849
scalar Forest.networkOne[3].batteryStats 	"time (s)" 	5010.0265345792
scalar Forest.networkOne[3].batteryStats 	"account 0" 	0.31563167167849
scalar Forest.networkOne[3].batteryStats 	account 	1
scalar Forest.networkOne[3].batteryStats 	"energy (mWs)" 	0
scalar Forest.networkOne[3].batteryStats 	"time (s)" 	0
scalar Forest.networkOne[3].batteryStats 	"account 1" 	0
scalar Forest.networkOne[3].batteryStats 	account 	2
scalar Forest.networkOne[3].batteryStats 	"energy (mWs)" 	0
scalar Forest.networkOne[3].batteryStats 	"time (s)" 	0
scalar Forest.networkOne[3].batteryStats 	"account 2" 	0
scalar Forest.networkOne[3].batteryStats 	account 	3
scalar Forest.networkOne[3].batteryStats 	"energy (mWs)" 	0
scalar Forest.networkOne[3].batteryStats 	"time (s)" 	0
scalar Forest.networkOne[3].batteryStats 	"account 3" 	0
scalar Forest.networkOne[3].batteryStats 	account 	4
scalar Forest.networkOne[3].batteryStats 	"energy (mWs)" 	0
scalar Forest.networkOne[3].batteryStats 	"time (s)" 	0
scalar Forest.networkOne[3].batteryStats 	"account 4" 	0
scalar Forest.networkOne[3].batteryStats 	TemperatureSensorLayer 	1
scalar Forest.networkOne[3].batteryStats 	"device total (mWs)" 	4.5090238811212
scalar Forest.networkOne[3].batteryStats 	account 	0
scalar Forest.networkOne[3].batteryStats 	"energy (mWs)" 	4.5090238811212
scalar Forest.networkOne[3].batteryStats 	"time (s)" 	5010.0265345792
scalar Forest.networkOne[3].batteryStats 	"account 0" 	4.5090238811212
scalar Forest.networkOne[3].applSensor 	"activity duration" 	-1
attr unit  s
scalar Forest.networkOne[3].applSensor 	firstPacketGeneration 	-1
attr unit  s
scalar Forest.networkOne[3].applSensor 	lastPacketReception 	-2
attr unit  s
scalar Forest.networkOne[3].applSensor 	nbPacketsSent 	0
scalar Forest.networkOne[3].applSensor 	nbPacketsReceived 	0
statistic Forest.networkOne[3].applSensor 	latency
field count 0
field mean 0
field stddev -nan
field sum 0
field sqrsum 0
field min 0
field max 0
scalar Forest.networkOne[4].nic.mac 	nbTxFrames 	0
scalar Forest.networkOne[4].nic.mac 	nbRxFrames 	0
scalar Forest.networkOne[4].nic.mac 	nbDroppedFrames 	0
scalar Forest.networkOne[4].nic.mac 	nbMissedAcks 	0
scalar Forest.networkOne[4].nic.mac 	nbRecvdAcks 	0
scalar Forest.networkOne[4].nic.mac 	nbTxAcks 	0
scalar Forest.networkOne[4].nic.mac 	nbDuplicates 	0
scalar Forest.networkOne[4].nic.mac 	meanBackoff 	0
scalar Forest.networkOne[4].nic.mac 	nbBackoffs 	0
scalar Forest.networkOne[4].nic.mac 	backoffDurations 	0
scalar Forest.networkOne[4].nic.phy 	nbFramesWithInterference 	0
scalar Forest.networkOne[4].nic.phy 	nbFramesWithoutInterference 	0
scalar Forest.networkOne[4].nic.phy 	nbFramesWithInterferencePartial 	0
scalar Forest.networkOne[4].nic.phy 	nbFramesWithoutInterferencePartial 	0
scalar Forest.networkOne[4].nic.phy 	nbFramesWithInterferenceDropped 	0
scalar Forest.networkOne[4].nic.phy 	nbFramesWithoutInterferenceDropped 	0
scalar Forest.networkOne[4].netwl 	nbDataPacketsForwarded 	0
scalar Forest.networkOne[4].netwl 	nbDataPacketsReceived 	0
scalar Forest.networkOne[4].netwl 	nbDataPacketsSent 	0
scalar Forest.networkOne[4].netwl 	nbDuplicatedFloodsReceived 	0
scalar Forest.networkOne[4].netwl 	nbFloodsSent 	0
scalar Forest.networkOne[4].netwl 	nbPureUnicastSent 	0
scalar Forest.networkOne[4].netwl 	nbRouteFloodsSent 	0
scalar Forest.networkOne[4].netwl 	nbRouteFloodsReceived 	0
scalar Forest.networkOne[4].netwl 	nbUnicastFloodForwarded 	0
scalar Forest.networkOne[4].netwl 	nbPureUnicastForwarded 	0
scalar Forest.networkOne[4].netwl 	nbGetRouteFailures 	0
scalar Forest.networkOne[4].netwl 	nbRoutesRecorded 	0
scalar Forest.networkOne[4].netwl 	meanNbHops 	-nan
scalar Forest.networkOne[4].tranl 	nbAggrPktReceived 	0
scalar Forest.networkOne[4].tranl 	"nbAggrPktSentDown " 	0
scalar Forest.networkOne[4].batteryStats 	nominal 	10800000
attr unit  mW-s
scalar Forest.networkOne[4].batteryStats 	total 	4.8246555067599
attr unit  mW-s
scalar Forest.networkOne[4].batteryStats 	lifetime 	-1
attr unit  s
scalar Forest.networkOne[4].batteryStats 	"Mean power consumption" 	0.00096299999081046
attr unit  mW
scalar Forest.networkOne[4].batteryStats 	"num devices" 	2
scalar Forest.networkOne[4].batteryStats 	"physical layer" 	0
scalar Forest.networkOne[4].batteryStats 	"device total (mWs)" 	0.31563167167849
scalar Forest.networkOne[4].batteryStats 	account 	0
scalar Forest.networkOne[4].batteryStats 	"energy (mWs)" 	0.31563167167849
scalar Forest.networkOne[4].batteryStats 	"time (s)" 	5010.0265345792
scalar Forest.networkOne[4].batteryStats 	"account 0" 	0.31563167167849
scalar Forest.networkOne[4].batteryStats 	account 	1
scalar Forest.networkOne[4].batteryStats 	"energy (mWs)" 	0
scalar Forest.networkOne[4].batteryStats 	"time (s)" 	0
scalar Forest.networkOne[4].batteryStats 	"account 1" 	0
scalar Forest.networkOne[4].batteryStats 	account 	2
scalar Forest.networkOne[4].batteryStats 	"energy (mWs)" 	0
scalar Forest.networkOne[4].batteryStats 	"time (s)" 	0
scalar Forest.networkOne[4].batteryStats 	"account 2" 	0
scalar Forest.networkOne[4].batteryStats 	account 	3
scalar Forest.networkOne[4].batteryStats 	"energy (mWs)" 	0
scalar Forest.networkOne[4].batteryStats 	"time (s)" 	0
scalar Forest.networkOne[4].batteryStats 	"account 3" 	0
scalar Forest.networkOne[4].batteryStats 	account 	4
scalar Forest.networkOne[4].batteryStats 	"energy (mWs)" 	0
scalar Forest.networkOne[4].batteryStats 	"time (s)" 	0
scalar Forest.networkOne[4].batteryStats 	"account 4" 	0
scalar Forest.networkOne[4].batteryStats 	TemperatureSensorLayer 	1
scalar Forest.networkOne[4].batteryStats 	"device total (mWs)" 	4.5090238811212
scalar Forest.networkOne[4].batteryStats 	account 	0
scalar Forest.networkOne[4].batteryStats 	"energy (mWs)" 	4.5090238811212
scalar Forest.networkOne[4].batteryStats 	"time (s)" 	5010.0265345792
scalar Forest.networkOne[4].batteryStats 	"account 0" 	4.5090238811212
scalar Forest.networkOne[4].applSensor 	"activity duration" 	-1
attr unit  s
scalar Forest.networkOne[4].applSensor 	firstPacketGeneration 	-1
attr unit  s
scalar Forest.networkOne[4].applSensor 	lastPacketReception 	-2
attr unit  s
scalar Forest.networkOne[4].applSensor 	nbPacketsSent 	0
scalar Forest.networkOne[4].applSensor 	nbPacketsReceived 	0
statistic Forest.networkOne[4].applSensor 	latency
field count 0
field mean 0
field stddev -nan
field sum 0
field sqrsum 0
field min 0
field max 0
scalar Forest.networkOne[5].nic.mac 	nbTxFrames 	0
scalar Forest.networkOne[5].nic.mac 	nbRxFrames 	0
scalar Forest.networkOne[5].nic.mac 	nbDroppedFrames 	0
scalar Forest.networkOne[5].nic.mac 	nbMissedAcks 	0
scalar Forest.networkOne[5].nic.mac 	nbRecvdAcks 	0
scalar Forest.networkOne[5].nic.mac 	nbTxAcks 	0
scalar Forest.networkOne[5].nic.mac 	nbDuplicates 	0
scalar Forest.networkOne[5].nic.mac 	meanBackoff 	0
scalar Forest.networkOne[5].nic.mac 	nbBackoffs 	0
scalar Forest.networkOne[5].nic.mac 	backoffDurations 	0
scalar Forest.networkOne[5].nic.phy 	nbFramesWithInterference 	0
scalar Forest.networkOne[5].nic.phy 	nbFramesWithoutInterference 	0
scalar Forest.networkOne[5].nic.phy 	nbFramesWithInterferencePartial 	0
scalar Forest.networkOne[5].nic.phy 	nbFramesWithoutInterferencePartial 	0
scalar Forest.networkOne[5].nic.phy 	nbFramesWithInterferenceDropped 	0
scalar Forest.networkOne[5].nic.phy 	nbFramesWithoutInterferenceDropped 	0
scalar Forest.networkOne[5].netwl 	nbDataPacketsForwarded 	0
scalar Forest.networkOne[5].netwl 	nbDataPacketsReceived 	0
scalar Forest.networkOne[5].netwl 	nbDataPacketsSent 	0
scalar Forest.networkOne[5].netwl 	nbDuplicatedFloodsReceived 	0
scalar Forest.networkOne[5].netwl 	nbFloodsSent 	0
scalar Forest.networkOne[5].netwl 	nbPureUnicastSent 	0
scalar Forest.networkOne[5].netwl 	nbRouteFloodsSent 	0
scalar Forest.networkOne[5].netwl 	nbRouteFloodsReceived 	0
scalar Forest.networkOne[5].netwl 	nbUnicastFloodForwarded 	0
scalar Forest.networkOne[5].netwl 	nbPureUnicastForwarded 	0
scalar Forest.networkOne[5].netwl 	nbGetRouteFailures 	0
scalar Forest.networkOne[5].netwl 	nbRoutesRecorded 	0
scalar Forest.networkOne[5].netwl 	meanNbHops 	-nan
scalar Forest.networkOne[5].tranl 	nbAggrPktReceived 	0
scalar Forest.networkOne[5].tranl 	"nbAggrPktSentDown " 	0
scalar Forest.networkOne[5].batteryStats 	nominal 	10800000
attr unit  mW-s
scalar Forest.networkOne[5].batteryStats 	total 	4.8246555067599
attr unit  mW-s
scalar Forest.networkOne[5].batteryStats 	lifetime 	-1
attr unit  s
scalar Forest.networkOne[5].batteryStats 	"Mean power consumption" 	0.00096299999081046
attr unit  mW
scalar Forest.networkOne[5].batteryStats 	"num devices" 	2
scalar Forest.networkOne[5].batteryStats 	"physical layer" 	0
scalar Forest.networkOne[5].batteryStats 	"device total (mWs)" 	0.31563167167849
scalar Forest.networkOne[5].batteryStats 	account 	0
scalar Forest.networkOne[5].batteryStats 	"energy (mWs)" 	0.31563167167849
scalar Forest.networkOne[5].batteryStats 	"time (s)" 	5010.0265345792
scalar Forest.networkOne[5].batteryStats 	"account 0" 	0.31563167167849
scalar Forest.networkOne[5].batteryStats 	account 	1
scalar Forest.networkOne[5].batteryStats 	"energy (mWs)" 	0
scalar Forest.networkOne[5].batteryStats 	"time (s)" 	0
scalar Forest.networkOne[5].batteryStats 	"account 1" 	0
scalar Forest.networkOne[5].batteryStats 	account 	2
scalar Forest.networkOne[5].batteryStats 	"energy (mWs)" 	0
scalar Forest.networkOne[5].batteryStats 	"time (s)" 	0
scalar Forest.networkOne[5].batteryStats 	"account 2" 	0
scalar Forest.networkOne[5].batteryStats 	account 	3
scalar Forest.networkOne[5].batteryStats 	"energy (mWs)" 	0
scalar Forest.networkOne[5].batteryStats 	"time (s)" 	0
scalar Forest.networkOne[5].batteryStats 	"account 3" 	0
scalar Forest.networkOne[5].batteryStats 	account 	4
scalar Forest.networkOne[5].batteryStats 	"energy (mWs)" 	0
scalar Forest.networkOne[5].batteryStats 	"time (s)" 	0
scalar Forest.networkOne[5].batteryStats 	"account 4" 	0
scalar Forest.networkOne[5].batteryStats 	TemperatureSensorLayer 	1
scalar Forest.networkOne[5].batteryStats 	"device total (mWs)" 	4.5090238811212
scalar Forest.networkOne[5].batteryStats 	account 	0
scalar Forest.networkOne[5].batteryStats 	"energy (mWs)" 	4.5090238811212
scalar Forest.networkOne[5].batteryStats 	"time (s)" 	5010.0265345792
scalar Forest.networkOne[5].batteryStats 	"account 0" 	4.5090238811212
scalar Forest.networkOne[5].applSensor 	"activity duration" 	-1
attr unit  s
scalar Forest.networkOne[5].applSensor 	firstPacketGeneration 	-1
attr unit  s
scalar Forest.networkOne[5].applSensor 	lastPacketReception 	-2
attr unit  s
scalar Forest.networkOne[5].applSensor 	nbPacketsSent 	0
scalar Forest.networkOne[5].applSensor 	nbPacketsReceived 	0
statistic Forest.networkOne[5].applSensor 	latency
field count 0
field mean 0
field stddev -nan
field sum 0
field sqrsum 0
field min 0
field max 0
scalar Forest.networkOne[6].nic.mac 	nbTxFrames 	0
scalar Forest.networkOne[6].nic.mac 	nbRxFrames 	0
scalar Forest.networkOne[6].nic.mac 	nbDroppedFrames 	0
scalar Forest.networkOne[6].nic.mac 	nbMissedAcks 	0
scalar Forest.networkOne[6].nic.mac 	nbRecvdAcks 	0
scalar Forest.networkOne[6].nic.mac 	nbTxAcks 	0
scalar Forest.networkOne[6].nic.mac 	nbDuplicates 	0
scalar Forest.networkOne[6].nic.mac 	meanBackoff 	0
scalar Forest.networkOne[6].nic.mac 	nbBackoffs 	0
scalar Forest.networkOne[6].nic.mac 	backoffDurations 	0
scalar Forest.networkOne[6].nic.phy 	nbFramesWithInterference 	0
scalar Forest.networkOne[6].nic.phy 	nbFramesWithoutInterference 	0
scalar Forest.networkOne[6].nic.phy 	nbFramesWithInterferencePartial 	0
scalar Forest.networkOne[6].nic.phy 	nbFramesWithoutInterferencePartial 	0
scalar Forest.networkOne[6].nic.phy 	nbFramesWithInterferenceDropped 	0
scalar Forest.networkOne[6].nic.phy 	nbFramesWithoutInterferenceDropped 	0
scalar Forest.networkOne[6].netwl 	nbDataPacketsForwarded 	0
scalar Forest.networkOne[6].netwl 	nbDataPacketsReceived 	0
scalar Forest.networkOne[6].netwl 	nbDataPacketsSent 	0
scalar Forest.networkOne[6].netwl 	nbDuplicatedFloodsReceived 	0
scalar Forest.networkOne[6].netwl 	nbFloodsSent 	0
scalar Forest.networkOne[6].netwl 	nbPureUnicastSent 	0
scalar Forest.networkOne[6].netwl 	nbRouteFloodsSent 	0
scalar Forest.networkOne[6].netwl 	nbRouteFloodsReceived 	0
scalar Forest.networkOne[6].netwl 	nbUnicastFloodForwarded 	0
scalar Forest.networkOne[6].netwl 	nbPureUnicastForwarded 	0
scalar Forest.networkOne[6].netwl 	nbGetRouteFailures 	0
scalar Forest.networkOne[6].netwl 	nbRoutesRecorded 	0
scalar Forest.networkOne[6].netwl 	meanNbHops 	-nan
scalar Forest.networkOne[6].tranl 	nbAggrPktReceived 	0
scalar Forest.networkOne[6].tranl 	"nbAggrPktSentDown " 	0
scalar Forest.networkOne[6].batteryStats 	nominal 	10800000
attr unit  mW-s
scalar Forest.networkOne[6].batteryStats 	total 	4.8246555067599
attr unit  mW-s
scalar Forest.networkOne[6].batteryStats 	lifetime 	-1
attr unit  s
scalar Forest.networkOne[6].batteryStats 	"Mean power consumption" 	0.00096299999081046
attr unit  mW
scalar Forest.networkOne[6].batteryStats 	"num devices" 	2
scalar Forest.networkOne[6].batteryStats 	"physical layer" 	0
scalar Forest.networkOne[6].batteryStats 	"device total (mWs)" 	0.31563167167849
scalar Forest.networkOne[6].batteryStats 	account 	0
scalar Forest.networkOne[6].batteryStats 	"energy (mWs)" 	0.31563167167849
scalar Forest.networkOne[6].batteryStats 	"time (s)" 	5010.0265345792
scalar Forest.networkOne[6].batteryStats 	"account 0" 	0.31563167167849
scalar Forest.networkOne[6].batteryStats 	account 	1
scalar Forest.networkOne[6].batteryStats 	"energy (mWs)" 	0
scalar Forest.networkOne[6].batteryStats 	"time (s)" 	0
scalar Forest.networkOne[6].batteryStats 	"account 1" 	0
scalar Forest.networkOne[6].batteryStats 	account 	2
scalar Forest.networkOne[6].batteryStats 	"energy (mWs)" 	0
scalar Forest.networkOne[6].batteryStats 	"time (s)" 	0
scalar Forest.networkOne[6].batteryStats 	"account 2" 	0
scalar Forest.networkOne[6].batteryStats 	account 	3
scalar Forest.networkOne[6].batteryStats 	"energy (mWs)" 	0
scalar Forest.networkOne[6].batteryStats 	"time (s)" 	0
scalar Forest.networkOne[6].batteryStats 	"account 3" 	0
scalar Forest.networkOne[6].batteryStats 	account 	4
scalar Forest.networkOne[6].batteryStats 	"energy (mWs)" 	0
scalar Forest.networkOne[6].batteryStats 	"time (s)" 	0
scalar Forest.networkOne[6].batteryStats 	"account 4" 	0
scalar Forest.networkOne[6].batteryStats 	TemperatureSensorLayer 	1
scalar Forest.networkOne[6].batteryStats 	"device total (mWs)" 	4.5090238811212
scalar Forest.networkOne[6].batteryStats 	account 	0
scalar Forest.networkOne[6].batteryStats 	"energy (mWs)" 	4.5090238811212
scalar Forest.networkOne[6].batteryStats 	"time (s)" 	5010.0265345792
scalar Forest.networkOne[6].batteryStats 	"account 0" 	4.5090238811212
scalar Forest.networkOne[6].applSensor 	"activity duration" 	-1
attr unit  s
scalar Forest.networkOne[6].applSensor 	firstPacketGeneration 	-1
attr unit  s
scalar Forest.networkOne[6].applSensor 	lastPacketReception 	-2
attr unit  s
scalar Forest.networkOne[6].applSensor 	nbPacketsSent 	0
scalar Forest.networkOne[6].applSensor 	nbPacketsReceived 	0
statistic Forest.networkOne[6].applSensor 	latency
field count 0
field mean 0
field stddev -nan
field sum 0
field sqrsum 0
field min 0
field max 0
scalar Forest.networkOne[7].nic.mac 	nbTxFrames 	0
scalar Forest.networkOne[7].nic.mac 	nbRxFrames 	0
scalar Forest.networkOne[7].nic.mac 	nbDroppedFrames 	0
scalar Forest.networkOne[7].nic.mac 	nbMissedAcks 	0
scalar Forest.networkOne[7].nic.mac 	nbRecvdAcks 	0
scalar Forest.networkOne[7].nic.mac 	nbTxAcks 	0
scalar Forest.networkOne[7].nic.mac 	nbDuplicates 	0
scalar Forest.networkOne[7].nic.mac 	meanBackoff 	0
scalar Forest.networkOne[7].nic.mac 	nbBackoffs 	0
scalar Forest.networkOne[7].nic.mac 	backoffDurations 	0
scalar Forest.networkOne[7].nic.phy 	nbFramesWithInterference 	0
scalar Forest.networkOne[7].nic.phy 	nbFramesWithoutInterference 	0
scalar Forest.networkOne[7].nic.phy 	nbFramesWithInterferencePartial 	0
scalar Forest.networkOne[7].nic.phy 	nbFramesWithoutInterferencePartial 	0
scalar Forest.networkOne[7].nic.phy 	nbFramesWithInterferenceDropped 	0
scalar Forest.networkOne[7].nic.phy 	nbFramesWithoutInterferenceDropped 	0
scalar Forest.networkOne[7].netwl 	nbDataPacketsForwarded 	0
scalar Forest.networkOne[7].netwl 	nbDataPacketsReceived 	0
scalar Forest.networkOne[7].netwl 	nbDataPacketsSent 	0
scalar Forest.networkOne[7].netwl 	nbDuplicatedFloodsReceived 	0
scalar Forest.networkOne[7].netwl 	nbFloodsSent 	0
scalar Forest.networkOne[7].netwl 	nbPureUnicastSent 	0
scalar Forest.networkOne[7].netwl 	nbRouteFloodsSent 	0
scalar Forest.networkOne[7].netwl 	nbRouteFloodsReceived 	0
scalar Forest.networkOne[7].netwl 	nbUnicastFloodForwarded 	0
scalar Forest.networkOne[7].netwl 	nbPureUnicastForwarded 	0
scalar Forest.networkOne[7].netwl 	nbGetRouteFailures 	0
scalar Forest.networkOne[7].netwl 	nbRoutesRecorded 	0
scalar Forest.networkOne[7].netwl 	meanNbHops 	-nan
scalar Forest.networkOne[7].tranl 	nbAggrPktReceived 	0
scalar Forest.networkOne[7].tranl 	"nbAggrPktSentDown " 	0
scalar Forest.networkOne[7].batteryStats 	nominal 	10800000
attr unit  mW-s
scalar Forest.networkOne[7].batteryStats 	total 	4.8246555067599
attr unit  mW-s
scalar Forest.networkOne[7].batteryStats 	lifetime 	-1
attr unit  s
scalar Forest.networkOne[7].batteryStats 	"Mean power consumption" 	0.00096299999081046
attr unit  mW
scalar Forest.networkOne[7].batteryStats 	"num devices" 	2
scalar Forest.networkOne[7].batteryStats 	"physical layer" 	0
scalar Forest.networkOne[7].batteryStats 	"device total (mWs)" 	0.31563167167849
scalar Forest.networkOne[7].batteryStats 	account 	0
scalar Forest.networkOne[7].batteryStats 	"energy (mWs)" 	0.31563167167849
scalar Forest.networkOne[7].batteryStats 	"time (s)" 	5010.0265345792
scalar Forest.networkOne[7].batteryStats 	"account 0" 	0.31563167167849
scalar Forest.networkOne[7].batteryStats 	account 	1
scalar Forest.networkOne[7].batteryStats 	"energy (mWs)" 	0
scalar Forest.networkOne[7].batteryStats 	"time (s)" 	0
scalar Forest.networkOne[7].batteryStats 	"account 1" 	0
scalar Forest.networkOne[7].batteryStats 	account 	2
scalar Forest.networkOne[7].batteryStats 	"energy (mWs)" 	0
scalar Forest.networkOne[7].batteryStats 	"time (s)" 	0
scalar Forest.networkOne[7].batteryStats 	"account 2" 	0
scalar Forest.networkOne[7].batteryStats 	account 	3
scalar Forest.networkOne[7].batteryStats 	"energy (mWs)" 	0
scalar Forest.networkOne[7].batteryStats 	"time (s)" 	0
scalar Forest.networkOne[7].batteryStats 	"account 3" 	0
scalar Forest.networkOne[7].batteryStats 	account 	4
scalar Forest.networkOne[7].batteryStats 	"energy (mWs)" 	0
scalar Forest.networkOne[7].batteryStats 	"time (s)" 	0
scalar Forest.networkOne[7].batteryStats 	"account 4" 	0
scalar Forest.networkOne[7].batteryStats 	TemperatureSensorLayer 	1
scalar Forest.networkOne[7].batteryStats 	"device total (mWs)" 	4.5090238811212
scalar Forest.networkOne[7].batteryStats 	account 	0
scalar Forest.networkOne[7].batteryStats 	"energy (mWs)" 	4.5090238811212
scalar Forest.networkOne[7].batteryStats 	"time (s)" 	5010.0265345792
scalar Forest.networkOne[7].batteryStats 	"account 0" 	4.5090238811212
scalar Forest.networkOne[7].applSensor 	"activity duration" 	-1
attr unit  s
scalar Forest.networkOne[7].applSensor 	firstPacketGeneration 	-1
attr unit  s
scalar Forest.networkOne[7].applSensor 	lastPacketReception 	-2
attr unit  s
scalar Forest.networkOne[7].applSensor 	nbPacketsSent 	0
scalar Forest.networkOne[7].applSensor 	nbPacketsReceived 	0
statistic Forest.networkOne[7].applSensor 	latency
field count 0
field mean 0
field stddev -nan
field sum 0
field sqrsum 0
field min 0
field max 0
scalar Forest.networkOne[8].nic.mac 	nbTxFrames 	0
scalar Forest.networkOne[8].nic.mac 	nbRxFrames 	0
scalar Forest.networkOne[8].nic.mac 	nbDroppedFrames 	0
scalar Forest.networkOne[8].nic.mac 	nbMissedAcks 	0
scalar Forest.networkOne[8].nic.mac 	nbRecvdAcks 	0
scalar Forest.networkOne[8].nic.mac 	nbTxAcks 	0
scalar Forest.networkOne[8].nic.mac 	nbDuplicates 	0
scalar Forest.networkOne[8].nic.mac 	meanBackoff 	0
scalar Forest.networkOne[8].nic.mac 	nbBackoffs 	0
scalar Forest.networkOne[8].nic.mac 	backoffDurations 	0
scalar Forest.networkOne[8].nic.phy 	nbFramesWithInterference 	0
scalar Forest.networkOne[8].nic.phy 	nbFramesWithoutInterference 	0
scalar Forest.networkOne[8].nic.phy 	nbFramesWithInterferencePartial 	0
scalar Forest.networkOne[8].nic.phy 	nbFramesWithoutInterferencePartial 	0
scalar Forest.networkOne[8].nic.phy 	nbFramesWithInterferenceDropped 	0
scalar Forest.networkOne[8].nic.phy 	nbFramesWithoutInterferenceDropped 	0
scalar Forest.networkOne[8].netwl 	nbDataPacketsForwarded 	0
scalar Forest.networkOne[8].netwl 	nbDataPacketsReceived 	0
scalar Forest.networkOne[8].netwl 	nbDataPacketsSent 	0
scalar Forest.networkOne[8].netwl 	nbDuplicatedFloodsReceived 	0
scalar Forest.networkOne[8].netwl 	nbFloodsSent 	0
scalar Forest.networkOne[8].netwl 	nbPureUnicastSent 	0
scalar Forest.networkOne[8].netwl 	nbRouteFloodsSent 	0
scalar Forest.networkOne[8].netwl 	nbRouteFloodsReceived 	0
scalar Forest.networkOne[8].netwl 	nbUnicastFloodForwarded 	0
scalar Forest.networkOne[8].netwl 	nbPureUnicastForwarded 	0
scalar Forest.networkOne[8].netwl 	nbGetRouteFailures 	0
scalar Forest.networkOne[8].netwl 	nbRoutesRecorded 	0
scalar Forest.networkOne[8].netwl 	meanNbHops 	-nan
scalar Forest.networkOne[8].tranl 	nbAggrPktReceived 	0
scalar Forest.networkOne[8].tranl 	"nbAggrPktSentDown " 	0
scalar Forest.networkOne[8].batteryStats 	nominal 	10800000
attr unit  mW-s
scalar Forest.networkOne[8].batteryStats 	total 	4.8246555067599
attr unit  mW-s
scalar Forest.networkOne[8].batteryStats 	lifetime 	-1
attr unit  s
scalar Forest.networkOne[8].batteryStats 	"Mean power consumption" 	0.00096299999081046
attr unit  mW
scalar Forest.networkOne[8].batteryStats 	"num devices" 	2
scalar Forest.networkOne[8].batteryStats 	"physical layer" 	0
scalar Forest.networkOne[8].batteryStats 	"device total (mWs)" 	0.31563167167849
scalar Forest.networkOne[8].batteryStats 	account 	0
scalar Forest.networkOne[8].batteryStats 	"energy (mWs)" 	0.31563167167849
scalar Forest.networkOne[8].batteryStats 	"time (s)" 	5010.0265345792
scalar Forest.networkOne[8].batteryStats 	"account 0" 	0.31563167167849
scalar Forest.networkOne[8].batteryStats 	account 	1
scalar Forest.networkOne[8].batteryStats 	"energy (mWs)" 	0
scalar Forest.networkOne[8].batteryStats 	"time (s)" 	0
scalar Forest.networkOne[8].batteryStats 	"account 1" 	0
scalar Forest.networkOne[8].batteryStats 	account 	2
scalar Forest.networkOne[8].batteryStats 	"energy (mWs)" 	0
scalar Forest.networkOne[8].batteryStats 	"time (s)" 	0
scalar Forest.networkOne[8].batteryStats 	"account 2" 	0
scalar Forest.networkOne[8].batteryStats 	account 	3
scalar Forest.networkOne[8].batteryStats 	"energy (mWs)" 	0
scalar Forest.networkOne[8].batteryStats 	"time (s)" 	0
scalar Forest.networkOne[8].batteryStats 	"account 3" 	0
scalar Forest.networkOne[8].batteryStats 	account 	4
scalar Forest.networkOne[8].batteryStats 	"energy (mWs)" 	0
scalar Forest.networkOne[8].batteryStats 	"time (s)" 	0
scalar Forest.networkOne[8].batteryStats 	"account 4" 	0
scalar Forest.networkOne[8].batteryStats 	TemperatureSensorLayer 	1
scalar Forest.networkOne[8].batteryStats 	"device total (mWs)" 	4.5090238811212
scalar Forest.networkOne[8].batteryStats 	account 	0
scalar Forest.networkOne[8].batteryStats 	"energy (mWs)" 	4.5090238811212
scalar Forest.networkOne[8].batteryStats 	"time (s)" 	5010.0265345792
scalar Forest.networkOne[8].batteryStats 	"account 0" 	4.5090238811212
scalar Forest.networkOne[8].applSensor 	"activity duration" 	-1
attr unit  s
scalar Forest.networkOne[8].applSensor 	firstPacketGeneration 	-1
attr unit  s
scalar Forest.networkOne[8].applSensor 	lastPacketReception 	-2
attr unit  s
scalar Forest.networkOne[8].applSensor 	nbPacketsSent 	0
scalar Forest.networkOne[8].applSensor 	nbPacketsReceived 	0
statistic Forest.networkOne[8].applSensor 	latency
field count 0
field mean 0
field stddev -nan
field sum 0
field sqrsum 0
field min 0
field max 0
scalar Forest.networkOne[9].nic.mac 	nbTxFrames 	0
scalar Forest.networkOne[9].nic.mac 	nbRxFrames 	0
scalar Forest.networkOne[9].nic.mac 	nbDroppedFrames 	0
scalar Forest.networkOne[9].nic.mac 	nbMissedAcks 	0
scalar Forest.networkOne[9].nic.mac 	nbRecvdAcks 	0
scalar Forest.networkOne[9].nic.mac 	nbTxAcks 	0
scalar Forest.networkOne[9].nic.mac 	nbDuplicates 	0
scalar Forest.networkOne[9].nic.mac 	meanBackoff 	0
scalar Forest.networkOne[9].nic.mac 	nbBackoffs 	0
scalar Forest.networkOne[9].nic.mac 	backoffDurations 	0
scalar Forest.networkOne[9].nic.phy 	nbFramesWithInterference 	0
scalar Forest.networkOne[9].nic.phy 	nbFramesWithoutInterference 	0
scalar Forest.networkOne[9].nic.phy 	nbFramesWithInterferencePartial 	0
scalar Forest.networkOne[9].nic.phy 	nbFramesWithoutInterferencePartial 	0
scalar Forest.networkOne[9].nic.phy 	nbFramesWithInterferenceDropped 	0
scalar Forest.networkOne[9].nic.phy 	nbFramesWithoutInterferenceDropped 	0
scalar Forest.networkOne[9].netwl 	nbDataPacketsForwarded 	0
scalar Forest.networkOne[9].netwl 	nbDataPacketsReceived 	0
scalar Forest.networkOne[9].netwl 	nbDataPacketsSent 	0
scalar Forest.networkOne[9].netwl 	nbDuplicatedFloodsReceived 	0
scalar Forest.networkOne[9].netwl 	nbFloodsSent 	0
scalar Forest.networkOne[9].netwl 	nbPureUnicastSent 	0
scalar Forest.networkOne[9].netwl 	nbRouteFloodsSent 	0
scalar Forest.networkOne[9].netwl 	nbRouteFloodsReceived 	0
scalar Forest.networkOne[9].netwl 	nbUnicastFloodForwarded 	0
scalar Forest.networkOne[9].netwl 	nbPureUnicastForwarded 	0
scalar Forest.networkOne[9].netwl 	nbGetRouteFailures 	0
scalar Forest.networkOne[9].netwl 	nbRoutesRecorded 	0
scalar Forest.networkOne[9].netwl 	meanNbHops 	-nan
scalar Forest.networkOne[9].tranl 	nbAggrPktReceived 	0
scalar Forest.networkOne[9].tranl 	"nbAggrPktSentDown " 	0
scalar Forest.networkOne[9].batteryStats 	nominal 	10800000
attr unit  mW-s
scalar Forest.networkOne[9].batteryStats 	total 	4.8246555067599
attr unit  mW-s
scalar Forest.networkOne[9].batteryStats 	lifetime 	-1
attr unit  s
scalar Forest.networkOne[9].batteryStats 	"Mean power consumption" 	0.00096299999081046
attr unit  mW
scalar Forest.networkOne[9].batteryStats 	"num devices" 	2
scalar Forest.networkOne[9].batteryStats 	"physical layer" 	0
scalar Forest.networkOne[9].batteryStats 	"device total (mWs)" 	0.31563167167849
scalar Forest.networkOne[9].batteryStats 	account 	0
scalar Forest.networkOne[9].batteryStats 	"energy (mWs)" 	0.31563167167849
scalar Forest.networkOne[9].batteryStats 	"time (s)" 	5010.0265345792
scalar Forest.networkOne[9].batteryStats 	"account 0" 	0.31563167167849
scalar Forest.networkOne[9].batteryStats 	account 	1
scalar Forest.networkOne[9].batteryStats 	"energy (mWs)" 	0
scalar Forest.networkOne[9].batteryStats 	"time (s)" 	0
scalar Forest.networkOne[9].batteryStats 	"account 1" 	0
scalar Forest.networkOne[9].batteryStats 	account 	2
scalar Forest.networkOne[9].batteryStats 	"energy (mWs)" 	0
scalar Forest.networkOne[9].batteryStats 	"time (s)" 	0
scalar Forest.networkOne[9].batteryStats 	"account 2" 	0
scalar Forest.networkOne[9].batteryStats 	account 	3
scalar Forest.networkOne[9].batteryStats 	"energy (mWs)" 	0
scalar Forest.networkOne[9].batteryStats 	"time (s)" 	0
scalar Forest.networkOne[9].batteryStats 	"account 3" 	0
scalar Forest.networkOne[9].batteryStats 	account 	4
scalar Forest.networkOne[9].batteryStats 	"energy (mWs)" 	0
scalar Forest.networkOne[9].batteryStats 	"time (s)" 	0
scalar Forest.networkOne[9].batteryStats 	"account 4" 	0
scalar Forest.networkOne[9].batteryStats 	TemperatureSensorLayer 	1
scalar Forest.networkOne[9].batteryStats 	"device total (mWs)" 	4.5090238811212
scalar Forest.networkOne[9].batteryStats 	account 	0
scalar Forest.networkOne[9].batteryStats 	"energy (mWs)" 	4.5090238811212
scalar Forest.networkOne[9].batteryStats 	"time (s)" 	5010.0265345792
scalar Forest.networkOne[9].batteryStats 	"account 0" 	4.5090238811212
scalar Forest.networkOne[9].applSensor 	"activity duration" 	-1
attr unit  s
scalar Forest.networkOne[9].applSensor 	firstPacketGeneration 	-1
attr unit  s
scalar Forest.networkOne[9].applSensor 	lastPacketReception 	-2
attr unit  s
scalar Forest.networkOne[9].applSensor 	nbPacketsSent 	0
scalar Forest.networkOne[9].applSensor 	nbPacketsReceived 	0
statistic Forest.networkOne[9].applSensor 	latency
field count 0
field mean 0
field stddev -nan
field sum 0
field sqrsum 0
field min 0
field max 0
scalar Forest.networkOne[10].nic.mac 	nbTxFrames 	4715
scalar Forest.networkOne[10].nic.mac 	nbRxFrames 	7
scalar Forest.networkOne[10].nic.mac 	nbDroppedFrames 	0
scalar Forest.networkOne[10].nic.mac 	nbMissedAcks 	0
scalar Forest.networkOne[10].nic.mac 	nbRecvdAcks 	0
scalar Forest.networkOne[10].nic.mac 	nbTxAcks 	0
scalar Forest.networkOne[10].nic.mac 	nbDuplicates 	0
scalar Forest.networkOne[10].nic.mac 	meanBackoff 	0.0011673370809911
scalar Forest.networkOne[10].nic.mac 	nbBackoffs 	4803
scalar Forest.networkOne[10].nic.mac 	backoffDurations 	5.60672
scalar Forest.networkOne[10].nic.phy 	nbFramesWithInterference 	40
scalar Forest.networkOne[10].nic.phy 	nbFramesWithoutInterference 	26028
scalar Forest.networkOne[10].nic.phy 	nbFramesWithInterferencePartial 	8
scalar Forest.networkOne[10].nic.phy 	nbFramesWithoutInterferencePartial 	0
scalar Forest.networkOne[10].nic.phy 	nbFramesWithInterferenceDropped 	7
scalar Forest.networkOne[10].nic.phy 	nbFramesWithoutInterferenceDropped 	0
scalar Forest.networkOne[10].netwl 	nbDataPacketsForwarded 	5
scalar Forest.networkOne[10].netwl 	nbDataPacketsReceived 	0
scalar Forest.networkOne[10].netwl 	nbDataPacketsSent 	4710
scalar Forest.networkOne[10].netwl 	nbDuplicatedFloodsReceived 	10
scalar Forest.networkOne[10].netwl 	nbFloodsSent 	0
scalar Forest.networkOne[10].netwl 	nbPureUnicastSent 	4710
scalar Forest.networkOne[10].netwl 	nbRouteFloodsSent 	0
scalar Forest.networkOne[10].netwl 	nbRouteFloodsReceived 	5
scalar Forest.networkOne[10].netwl 	nbUnicastFloodForwarded 	0
scalar Forest.networkOne[10].netwl 	nbPureUnicastForwarded 	0
scalar Forest.networkOne[10].netwl 	nbGetRouteFailures 	0
scalar Forest.networkOne[10].netwl 	nbRoutesRecorded 	1
scalar Forest.networkOne[10].netwl 	meanNbHops 	-nan
scalar Forest.networkOne[10].tranl 	nbAggrPktReceived 	0
scalar Forest.networkOne[10].tranl 	"nbAggrPktSentDown " 	0
scalar Forest.networkOne[10].batteryStats 	nominal 	10800000
attr unit  mW-s
scalar Forest.networkOne[10].batteryStats 	total 	283169.20844172
attr unit  mW-s
scalar Forest.networkOne[10].batteryStats 	lifetime 	-1
attr unit  s
scalar Forest.networkOne[10].batteryStats 	"Mean power consumption" 	56.520500737329
attr unit  mW
scalar Forest.networkOne[10].batteryStats 	"num devices" 	2
scalar Forest.networkOne[10].batteryStats 	"physical layer" 	0
scalar Forest.networkOne[10].batteryStats 	"device total (mWs)" 	282543.3185342
scalar Forest.networkOne[10].batteryStats 	account 	0
scalar Forest.networkOne[10].batteryStats 	"energy (mWs)" 	0
scalar Forest.networkOne[10].batteryStats 	"time (s)" 	0
scalar Forest.networkOne[10].batteryStats 	"account 0" 	0
scalar Forest.networkOne[10].batteryStats 	account 	1
scalar Forest.networkOne[10].batteryStats 	"energy (mWs)" 	282165.5618942
scalar Forest.networkOne[10].batteryStats 	"time (s)" 	5002.9354945792
scalar Forest.networkOne[10].batteryStats 	"account 1" 	282165.5618942
scalar Forest.networkOne[10].batteryStats 	account 	2
scalar Forest.networkOne[10].batteryStats 	"energy (mWs)" 	275.64105599998
scalar Forest.networkOne[10].batteryStats 	"time (s)" 	5.28048
scalar Forest.networkOne[10].batteryStats 	"account 2" 	275.64105599998
scalar Forest.networkOne[10].batteryStats 	account 	3
scalar Forest.networkOne[10].batteryStats 	"energy (mWs)" 	102.11558399999
scalar Forest.networkOne[10].batteryStats 	"time (s)" 	1.81056
scalar Forest.networkOne[10].batteryStats 	"account 3" 	102.11558399999
scalar Forest.networkOne[10].batteryStats 	account 	4
scalar Forest.networkOne[10].batteryStats 	"energy (mWs)" 	0
scalar Forest.networkOne[10].batteryStats 	"time (s)" 	0
scalar Forest.networkOne[10].batteryStats 	"account 4" 	0
scalar Forest.networkOne[10].batteryStats 	TemperatureSensorLayer 	1
scalar Forest.networkOne[10].batteryStats 	"device total (mWs)" 	625.88990388119
scalar Forest.networkOne[10].batteryStats 	account 	0
scalar Forest.networkOne[10].batteryStats 	"energy (mWs)" 	625.88990388119
scalar Forest.networkOne[10].batteryStats 	"time (s)" 	5010.0265345792
scalar Forest.networkOne[10].batteryStats 	"account 0" 	625.88990388119
scalar Forest.networkOne[10].applSensor 	"activity duration" 	-1
attr unit  s
scalar Forest.networkOne[10].applSensor 	firstPacketGeneration 	-1
attr unit  s
scalar Forest.networkOne[10].applSensor 	lastPacketReception 	-2
attr unit  s
scalar Forest.networkOne[10].applSensor 	nbPacketsSent 	4710
scalar Forest.networkOne[10].applSensor 	nbPacketsReceived 	0
statistic Forest.networkOne[10].applSensor 	latency
field count 0
field mean 0
field stddev -nan
field sum 0
field sqrsum 0
field min 0
field max 0
scalar Forest.networkOne[11].nic.mac 	nbTxFrames 	0
scalar Forest.networkOne[11].nic.mac 	nbRxFrames 	0
scalar Forest.networkOne[11].nic.mac 	nbDroppedFrames 	0
scalar Forest.networkOne[11].nic.mac 	nbMissedAcks 	0
scalar Forest.networkOne[11].nic.mac 	nbRecvdAcks 	0
scalar Forest.networkOne[11].nic.mac 	nbTxAcks 	0
scalar Forest.networkOne[11].nic.mac 	nbDuplicates 	0
scalar Forest.networkOne[11].nic.mac 	meanBackoff 	0
scalar Forest.networkOne[11].nic.mac 	nbBackoffs 	0
scalar Forest.networkOne[11].nic.mac 	backoffDurations 	0
scalar Forest.networkOne[11].nic.phy 	nbFramesWithInterference 	0
scalar Forest.networkOne[11].nic.phy 	nbFramesWithoutInterference 	0
scalar Forest.networkOne[11].nic.phy 	nbFramesWithInterferencePartial 	0
scalar Forest.networkOne[11].nic.phy 	nbFramesWithoutInterferencePartial 	0
scalar Forest.networkOne[11].nic.phy 	nbFramesWithInterferenceDropped 	0
scalar Forest.networkOne[11].nic.phy 	nbFramesWithoutInterferenceDropped 	0
scalar Forest.networkOne[11].netwl 	nbDataPacketsForwarded 	0
scalar Forest.networkOne[11].netwl 	nbDataPacketsReceived 	0
scalar Forest.networkOne[11].netwl 	nbDataPacketsSent 	0
scalar Forest.networkOne[11].netwl 	nbDuplicatedFloodsReceived 	0
scalar Forest.networkOne[11].netwl 	nbFloodsSent 	0
scalar Forest.networkOne[11].netwl 	nbPureUnicastSent 	0
scalar Forest.networkOne[11].netwl 	nbRouteFloodsSent 	0
scalar Forest.networkOne[11].netwl 	nbRouteFloodsReceived 	0
scalar Forest.networkOne[11].netwl 	nbUnicastFloodForwarded 	0
scalar Forest.networkOne[11].netwl 	nbPureUnicastForwarded 	0
scalar Forest.networkOne[11].netwl 	nbGetRouteFailures 	0
scalar Forest.networkOne[11].netwl 	nbRoutesRecorded 	0
scalar Forest.networkOne[11].netwl 	meanNbHops 	-nan
scalar Forest.networkOne[11].tranl 	nbAggrPktReceived 	0
scalar Forest.networkOne[11].tranl 	"nbAggrPktSentDown " 	0
scalar Forest.networkOne[11].batteryStats 	nominal 	10800000
attr unit  mW-s
scalar Forest.networkOne[11].batteryStats 	total 	4.8246555067599
attr unit  mW-s
scalar Forest.networkOne[11].batteryStats 	lifetime 	-1
attr unit  s
scalar Forest.networkOne[11].batteryStats 	"Mean power consumption" 	0.00096299999081046
attr unit  mW
scalar Forest.networkOne[11].batteryStats 	"num devices" 	2
scalar Forest.networkOne[11].batteryStats 	"physical layer" 	0
scalar Forest.networkOne[11].batteryStats 	"device total (mWs)" 	0.31563167167849
scalar Forest.networkOne[11].batteryStats 	account 	0
scalar Forest.networkOne[11].batteryStats 	"energy (mWs)" 	0.31563167167849
scalar Forest.networkOne[11].batteryStats 	"time (s)" 	5010.0265345792
scalar Forest.networkOne[11].batteryStats 	"account 0" 	0.31563167167849
scalar Forest.networkOne[11].batteryStats 	account 	1
scalar Forest.networkOne[11].batteryStats 	"energy (mWs)" 	0
scalar Forest.networkOne[11].batteryStats 	"time (s)" 	0
scalar Forest.networkOne[11].batteryStats 	"account 1" 	0
scalar Forest.networkOne[11].batteryStats 	account 	2
scalar Forest.networkOne[11].batteryStats 	"energy (mWs)" 	0
scalar Forest.networkOne[11].batteryStats 	"time (s)" 	0
scalar Forest.networkOne[11].batteryStats 	"account 2" 	0
scalar Forest.networkOne[11].batteryStats 	account 	3
scalar Forest.networkOne[11].batteryStats 	"energy (mWs)" 	0
scalar Forest.networkOne[11].batteryStats 	"time (s)" 	0
scalar Forest.networkOne[11].batteryStats 	"account 3" 	0
scalar Forest.networkOne[11].batteryStats 	account 	4
scalar Forest.networkOne[11].batteryStats 	"energy (mWs)" 	0
scalar Forest.networkOne[11].batteryStats 	"time (s)" 	0
scalar Forest.networkOne[11].batteryStats 	"account 4" 	0
scalar Forest.networkOne[11].batteryStats 	TemperatureSensorLayer 	1
scalar Forest.networkOne[11].batteryStats 	"device total (mWs)" 	4.5090238811212
scalar Forest.networkOne[11].batteryStats 	account 	0
scalar Forest.networkOne[11].batteryStats 	"energy (mWs)" 	4.5090238811212
scalar Forest.networkOne[11].batteryStats 	"time (s)" 	5010.0265345792
scalar Forest.networkOne[11].batteryStats 	"account 0" 	4.5090238811212
scalar Forest.networkOne[11].applSensor 	"activity duration" 	-1
attr unit  s
scalar Forest.networkOne[11].applSensor 	firstPacketGeneration 	-1
attr unit  s
scalar Forest.networkOne[11].applSensor 	lastPacketReception 	-2
attr unit  s
scalar Forest.networkOne[11].applSensor 	nbPacketsSent 	0
scalar Forest.networkOne[11].applSensor 	nbPacketsReceived 	0
statistic Forest.networkOne[11].applSensor 	latency
field count 0
field mean 0
field stddev -nan
field sum 0
field sqrsum 0
field min 0
field max 0
scalar Forest.networkOne[12].nic.mac 	nbTxFrames 	0
scalar Forest.networkOne[12].nic.mac 	nbRxFrames 	0
scalar Forest.networkOne[12].nic.mac 	nbDroppedFrames 	0
scalar Forest.networkOne[12].nic.mac 	nbMissedAcks 	0
scalar Forest.networkOne[12].nic.mac 	nbRecvdAcks 	0
scalar Forest.networkOne[12].nic.mac 	nbTxAcks 	0
scalar Forest.networkOne[12].nic.mac 	nbDuplicates 	0
scalar Forest.networkOne[12].nic.mac 	meanBackoff 	0
scalar Forest.networkOne[12].nic.mac 	nbBackoffs 	0
scalar Forest.networkOne[12].nic.mac 	backoffDurations 	0
scalar Forest.networkOne[12].nic.phy 	nbFramesWithInterference 	0
scalar Forest.networkOne[12].nic.phy 	nbFramesWithoutInterference 	0
scalar Forest.networkOne[12].nic.phy 	nbFramesWithInterferencePartial 	0
scalar Forest.networkOne[12].nic.phy 	nbFramesWithoutInterferencePartial 	0
scalar Forest.networkOne[12].nic.phy 	nbFramesWithInterferenceDropped 	0
scalar Forest.networkOne[12].nic.phy 	nbFramesWithoutInterferenceDropped 	0
scalar Forest.networkOne[12].netwl 	nbDataPacketsForwarded 	0
scalar Forest.networkOne[12].netwl 	nbDataPacketsReceived 	0
scalar Forest.networkOne[12].netwl 	nbDataPacketsSent 	0
scalar Forest.networkOne[12].netwl 	nbDuplicatedFloodsReceived 	0
scalar Forest.networkOne[12].netwl 	nbFloodsSent 	0
scalar Forest.networkOne[12].netwl 	nbPureUnicastSent 	0
scalar Forest.networkOne[12].netwl 	nbRouteFloodsSent 	0
scalar Forest.networkOne[12].netwl 	nbRouteFloodsReceived 	0
scalar Forest.networkOne[12].netwl 	nbUnicastFloodForwarded 	0
scalar Forest.networkOne[12].netwl 	nbPureUnicastForwarded 	0
scalar Forest.networkOne[12].netwl 	nbGetRouteFailures 	0
scalar Forest.networkOne[12].netwl 	nbRoutesRecorded 	0
scalar Forest.networkOne[12].netwl 	meanNbHops 	-nan
scalar Forest.networkOne[12].tranl 	nbAggrPktReceived 	0
scalar Forest.networkOne[12].tranl 	"nbAggrPktSentDown " 	0
scalar Forest.networkOne[12].batteryStats 	nominal 	10800000
attr unit  mW-s
scalar Forest.networkOne[12].batteryStats 	total 	4.8246555067599
attr unit  mW-s
scalar Forest.networkOne[12].batteryStats 	lifetime 	-1
attr unit  s
scalar Forest.networkOne[12].batteryStats 	"Mean power consumption" 	0.00096299999081046
attr unit  mW
scalar Forest.networkOne[12].batteryStats 	"num devices" 	2
scalar Forest.networkOne[12].batteryStats 	"physical layer" 	0
scalar Forest.networkOne[12].batteryStats 	"device total (mWs)" 	0.31563167167849
scalar Forest.networkOne[12].batteryStats 	account 	0
scalar Forest.networkOne[12].batteryStats 	"energy (mWs)" 	0.31563167167849
scalar Forest.networkOne[12].batteryStats 	"time (s)" 	5010.0265345792
scalar Forest.networkOne[12].batteryStats 	"account 0" 	0.31563167167849
scalar Forest.networkOne[12].batteryStats 	account 	1
scalar Forest.networkOne[12].batteryStats 	"energy (mWs)" 	0
scalar Forest.networkOne[12].batteryStats 	"time (s)" 	0
scalar Forest.networkOne[12].batteryStats 	"account 1" 	0
scalar Forest.networkOne[12].batteryStats 	account 	2
scalar Forest.networkOne[12].batteryStats 	"energy (mWs)" 	0
scalar Forest.networkOne[12].batteryStats 	"time (s)" 	0
scalar Forest.networkOne[12].batteryStats 	"account 2" 	0
scalar Forest.networkOne[12].batteryStats 	account 	3
scalar Forest.networkOne[12].batteryStats 	"energy (mWs)" 	0
scalar Forest.networkOne[12].batteryStats 	"time (s)" 	0
scalar Forest.networkOne[12].batteryStats 	"account 3" 	0
scalar Forest.networkOne[12].batteryStats 	account 	4
scalar Forest.networkOne[12].batteryStats 	"energy (mWs)" 	0
scalar Forest.networkOne[12].batteryStats 	"time (s)" 	0
scalar Forest.networkOne[12].batteryStats 	"account 4" 	0
scalar Forest.networkOne[12].batteryStats 	TemperatureSensorLayer 	1
scalar Forest.networkOne[12].batteryStats 	"device total (mWs)" 	4.5090238811212
scalar Forest.networkOne[12].batteryStats 	account 	0
scalar Forest.networkOne[12].batteryStats 	"energy (mWs)" 	4.5090238811212
scalar Forest.networkOne[12].batteryStats 	"time (s)" 	5010.0265345792
scalar Forest.networkOne[12].batteryStats 	"account 0" 	4.5090238811212
scalar Forest.networkOne[12].applSensor 	"activity duration" 	-1
attr unit  s
scalar Forest.networkOne[12].applSensor 	firstPacketGeneration 	-1
attr unit  s
scalar Forest.networkOne[12].applSensor 	lastPacketReception 	-2
attr unit  s
scalar Forest.networkOne[12].applSensor 	nbPacketsSent 	0
scalar Forest.networkOne[12].applSensor 	nbPacketsReceived 	0
statistic Forest.networkOne[12].applSensor 	latency
field count 0
field mean 0
field stddev -nan
field sum 0
field sqrsum 0
field min 0
field max 0
scalar Forest.networkOne[13].nic.mac 	nbTxFrames 	8166
scalar Forest.networkOne[13].nic.mac 	nbRxFrames 	3611
scalar Forest.networkOne[13].nic.mac 	nbDroppedFrames 	0
scalar Forest.networkOne[13].nic.mac 	nbMissedAcks 	0
scalar Forest.networkOne[13].nic.mac 	nbRecvdAcks 	0
scalar Forest.networkOne[13].nic.mac 	nbTxAcks 	0
scalar Forest.networkOne[13].nic.mac 	nbDuplicates 	0
scalar Forest.networkOne[13].nic.mac 	meanBackoff 	0.0011434970435622
scalar Forest.networkOne[13].nic.mac 	nbBackoffs 	8287
scalar Forest.networkOne[13].nic.mac 	backoffDurations 	9.4761600000001
scalar Forest.networkOne[13].nic.phy 	nbFramesWithInterference 	50
scalar Forest.networkOne[13].nic.phy 	nbFramesWithoutInterference 	26582
scalar Forest.networkOne[13].nic.phy 	nbFramesWithInterferencePartial 	3
scalar Forest.networkOne[13].nic.phy 	nbFramesWithoutInterferencePartial 	0
scalar Forest.networkOne[13].nic.phy 	nbFramesWithInterferenceDropped 	8
scalar Forest.networkOne[13].nic.phy 	nbFramesWithoutInterferenceDropped 	0
scalar Forest.networkOne[13].netwl 	nbDataPacketsForwarded 	3625
scalar Forest.networkOne[13].netwl 	nbDataPacketsReceived 	0
scalar Forest.networkOne[13].netwl 	nbDataPacketsSent 	4541
scalar Forest.networkOne[13].netwl 	nbDuplicatedFloodsReceived 	8
scalar Forest.networkOne[13].netwl 	nbFloodsSent 	0
scalar Forest.networkOne[13].netwl 	nbPureUnicastSent 	4541
scalar Forest.networkOne[13].netwl 	nbRouteFloodsSent 	0
scalar Forest.networkOne[13].netwl 	nbRouteFloodsReceived 	5
scalar Forest.networkOne[13].netwl 	nbUnicastFloodForwarded 	0
scalar Forest.networkOne[13].netwl 	nbPureUnicastForwarded 	3620
scalar Forest.networkOne[13].netwl 	nbGetRouteFailures 	0
scalar Forest.networkOne[13].netwl 	nbRoutesRecorded 	1
scalar Forest.networkOne[13].netwl 	meanNbHops 	-nan
scalar Forest.networkOne[13].tranl 	nbAggrPktReceived 	0
scalar Forest.networkOne[13].tranl 	"nbAggrPktSentDown " 	0
scalar Forest.networkOne[13].batteryStats 	nominal 	10800000
attr unit  mW-s
scalar Forest.networkOne[13].batteryStats 	total 	283130.67911096
attr unit  mW-s
scalar Forest.networkOne[13].batteryStats 	lifetime 	-1
attr unit  s
scalar Forest.networkOne[13].batteryStats 	"Mean power consumption" 	56.512810292879
attr unit  mW
scalar Forest.networkOne[13].batteryStats 	"num devices" 	2
scalar Forest.networkOne[13].batteryStats 	"physical layer" 	0
scalar Forest.networkOne[13].batteryStats 	"device total (mWs)" 	282527.08503018
scalar Forest.networkOne[13].batteryStats 	account 	0
scalar Forest.networkOne[13].batteryStats 	"energy (mWs)" 	0
scalar Forest.networkOne[13].batteryStats 	"time (s)" 	0
scalar Forest.networkOne[13].batteryStats 	"account 0" 	0
scalar Forest.networkOne[13].batteryStats 	account 	1
scalar Forest.networkOne[13].batteryStats 	"energy (mWs)" 	281872.82874858
scalar Forest.networkOne[13].batteryStats 	"time (s)" 	4997.7451905792
scalar Forest.networkOne[13].batteryStats 	"account 1" 	281872.82874858
scalar Forest.networkOne[13].batteryStats 	account 	2
scalar Forest.networkOne[13].batteryStats 	"energy (mWs)" 	477.40032000003
scalar Forest.networkOne[13].batteryStats 	"time (s)" 	9.1456
scalar Forest.networkOne[13].batteryStats 	"account 2" 	477.40032000003
scalar Forest.networkOne[13].batteryStats 	account 	3
scalar Forest.networkOne[13].batteryStats 	"energy (mWs)" 	176.85596160005
scalar Forest.networkOne[13].batteryStats 	"time (s)" 	3.135744
scalar Forest.networkOne[13].batteryStats 	"account 3" 	176.85596160005
scalar Forest.networkOne[13].batteryStats 	account 	4
scalar Forest.networkOne[13].batteryStats 	"energy (mWs)" 	0
scalar Forest.networkOne[13].batteryStats 	"time (s)" 	0
scalar Forest.networkOne[13].batteryStats 	"account 4" 	0
scalar Forest.networkOne[13].batteryStats 	TemperatureSensorLayer 	1
scalar Forest.networkOne[13].batteryStats 	"device total (mWs)" 	603.59407188124
scalar Forest.networkOne[13].batteryStats 	account 	0
scalar Forest.networkOne[13].batteryStats 	"energy (mWs)" 	603.59407188124
scalar Forest.networkOne[13].batteryStats 	"time (s)" 	5010.0265345792
scalar Forest.networkOne[13].batteryStats 	"account 0" 	603.59407188124
scalar Forest.networkOne[13].applSensor 	"activity duration" 	-1
attr unit  s
scalar Forest.networkOne[13].applSensor 	firstPacketGeneration 	-1
attr unit  s
scalar Forest.networkOne[13].applSensor 	lastPacketReception 	-2
attr unit  s
scalar Forest.networkOne[13].applSensor 	nbPacketsSent 	4541
scalar Forest.networkOne[13].applSensor 	nbPacketsReceived 	0
statistic Forest.networkOne[13].applSensor 	latency
field count 0
field mean 0
field stddev -nan
field sum 0
field sqrsum 0
field min 0
field max 0
scalar Forest.networkOne[14].nic.mac 	nbTxFrames 	0
scalar Forest.networkOne[14].nic.mac 	nbRxFrames 	0
scalar Forest.networkOne[14].nic.mac 	nbDroppedFrames 	0
scalar Forest.networkOne[14].nic.mac 	nbMissedAcks 	0
scalar Forest.networkOne[14].nic.mac 	nbRecvdAcks 	0
scalar Forest.networkOne[14].nic.mac 	nbTxAcks 	0
scalar Forest.networkOne[14].nic.mac 	nbDuplicates 	0
scalar Forest.networkOne[14].nic.mac 	meanBackoff 	0
scalar Forest.networkOne[14].nic.mac 	nbBackoffs 	0
scalar Forest.networkOne[14].nic.mac 	backoffDurations 	0
scalar Forest.networkOne[14].nic.phy 	nbFramesWithInterference 	0
scalar Forest.networkOne[14].nic.phy 	nbFramesWithoutInterference 	0
scalar Forest.networkOne[14].nic.phy 	nbFramesWithInterferencePartial 	0
scalar Forest.networkOne[14].nic.phy 	nbFramesWithoutInterferencePartial 	0
scalar Forest.networkOne[14].nic.phy 	nbFramesWithInterferenceDropped 	0
scalar Forest.networkOne[14].nic.phy 	nbFramesWithoutInterferenceDropped 	0
scalar Forest.networkOne[14].netwl 	nbDataPacketsForwarded 	0
scalar Forest.networkOne[14].netwl 	nbDataPacketsReceived 	0
scalar Forest.networkOne[14].netwl 	nbDataPacketsSent 	0
scalar Forest.networkOne[14].netwl 	nbDuplicatedFloodsReceived 	0
scalar Forest.networkOne[14].netwl 	nbFloodsSent 	0
scalar Forest.networkOne[14].netwl 	nbPureUnicastSent 	0
scalar Forest.networkOne[14].netwl 	nbRouteFloodsSent 	0
scalar Forest.networkOne[14].netwl 	nbRouteFloodsReceived 	0
scalar Forest.networkOne[14].netwl 	nbUnicastFloodForwarded 	0
scalar Forest.networkOne[14].netwl 	nbPureUnicastForwarded 	0
scalar Forest.networkOne[14].netwl 	nbGetRouteFailures 	0
scalar Forest.networkOne[14].netwl 	nbRoutesRecorded 	0
scalar Forest.networkOne[14].netwl 	meanNbHops 	-nan
scalar Forest.networkOne[14].tranl 	nbAggrPktReceived 	0
scalar Forest.networkOne[14].tranl 	"nbAggrPktSentDown " 	0
scalar Forest.networkOne[14].batteryStats 	nominal 	10800000
attr unit  mW-s
scalar Forest.networkOne[14].batteryStats 	total 	4.8246555067599
attr unit  mW-s
scalar Forest.networkOne[14].batteryStats 	lifetime 	-1
attr unit  s
scalar Forest.networkOne[14].batteryStats 	"Mean power consumption" 	0.00096299999081046
attr unit  mW
scalar Forest.networkOne[14].batteryStats 	"num devices" 	2
scalar Forest.networkOne[14].batteryStats 	"physical layer" 	0
scalar Forest.networkOne[14].batteryStats 	"device total (mWs)" 	0.31563167167849
scalar Forest.networkOne[14].batteryStats 	account 	0
scalar Forest.networkOne[14].batteryStats 	"energy (mWs)" 	0.31563167167849
scalar Forest.networkOne[14].batteryStats 	"time (s)" 	5010.0265345792
scalar Forest.networkOne[14].batteryStats 	"account 0" 	0.31563167167849
scalar Forest.networkOne[14].batteryStats 	account 	1
scalar Forest.networkOne[14].batteryStats 	"energy (mWs)" 	0
scalar Forest.networkOne[14].batteryStats 	"time (s)" 	0
scalar Forest.networkOne[14].batteryStats 	"account 1" 	0
scalar Forest.networkOne[14].batteryStats 	account 	2
scalar Forest.networkOne[14].batteryStats 	"energy (mWs)" 	0
scalar Forest.networkOne[14].batteryStats 	"time (s)" 	0
scalar Forest.networkOne[14].batteryStats 	"account 2" 	0
scalar Forest.networkOne[14].batteryStats 	account 	3
scalar Forest.networkOne[14].batteryStats 	"energy (mWs)" 	0
scalar Forest.networkOne[14].batteryStats 	"time (s)" 	0
scalar Forest.networkOne[14].batteryStats 	"account 3" 	0
scalar Forest.networkOne[14].batteryStats 	account 	4
scalar Forest.networkOne[14].batteryStats 	"energy (mWs)" 	0
scalar Forest.networkOne[14].batteryStats 	"time (s)" 	0
scalar Forest.networkOne[14].batteryStats 	"account 4" 	0
scalar Forest.networkOne[14].batteryStats 	TemperatureSensorLayer 	1
scalar Forest.networkOne[14].batteryStats 	"device total (mWs)" 	4.5090238811212
scalar Forest.networkOne[14].batteryStats 	account 	0
scalar Forest.networkOne[14].batteryStats 	"energy (mWs)" 	4.5090238811212
scalar Forest.networkOne[14].batteryStats 	"time (s)" 	5010.0265345792
scalar Forest.networkOne[14].batteryStats 	"account 0" 	4.5090238811212
scalar Forest.networkOne[14].applSensor 	"activity duration" 	-1
attr unit  s
scalar Forest.networkOne[14].applSensor 	firstPacketGeneration 	-1
attr unit  s
scalar Forest.networkOne[14].applSensor 	lastPacketReception 	-2
attr unit  s
scalar Forest.networkOne[14].applSensor 	nbPacketsSent 	0
scalar Forest.networkOne[14].applSensor 	nbPacketsReceived 	0
statistic Forest.networkOne[14].applSensor 	latency
field count 0
field mean 0
field stddev -nan
field sum 0
field sqrsum 0
field min 0
field max 0
scalar Forest.networkOne[15].nic.mac 	nbTxFrames 	0
scalar Forest.networkOne[15].nic.mac 	nbRxFrames 	0
scalar Forest.networkOne[15].nic.mac 	nbDroppedFrames 	0
scalar Forest.networkOne[15].nic.mac 	nbMissedAcks 	0
scalar Forest.networkOne[15].nic.mac 	nbRecvdAcks 	0
scalar Forest.networkOne[15].nic.mac 	nbTxAcks 	0
scalar Forest.networkOne[15].nic.mac 	nbDuplicates 	0
scalar Forest.networkOne[15].nic.mac 	meanBackoff 	0
scalar Forest.networkOne[15].nic.mac 	nbBackoffs 	0
scalar Forest.networkOne[15].nic.mac 	backoffDurations 	0
scalar Forest.networkOne[15].nic.phy 	nbFramesWithInterference 	0
scalar Forest.networkOne[15].nic.phy 	nbFramesWithoutInterference 	0
scalar Forest.networkOne[15].nic.phy 	nbFramesWithInterferencePartial 	0
scalar Forest.networkOne[15].nic.phy 	nbFramesWithoutInterferencePartial 	0
scalar Forest.networkOne[15].nic.phy 	nbFramesWithInterferenceDropped 	0
scalar Forest.networkOne[15].nic.phy 	nbFramesWithoutInterferenceDropped 	0
scalar Forest.networkOne[15].netwl 	nbDataPacketsForwarded 	0
scalar Forest.networkOne[15].netwl 	nbDataPacketsReceived 	0
scalar Forest.networkOne[15].netwl 	nbDataPacketsSent 	0
scalar Forest.networkOne[15].netwl 	nbDuplicatedFloodsReceived 	0
scalar Forest.networkOne[15].netwl 	nbFloodsSent 	0
scalar Forest.networkOne[15].netwl 	nbPureUnicastSent 	0
scalar Forest.networkOne[15].netwl 	nbRouteFloodsSent 	0
scalar Forest.networkOne[15].netwl 	nbRouteFloodsReceived 	0
scalar Forest.networkOne[15].netwl 	nbUnicastFloodForwarded 	0
scalar Forest.networkOne[15].netwl 	nbPureUnicastForwarded 	0
scalar Forest.networkOne[15].netwl 	nbGetRouteFailures 	0
scalar Forest.networkOne[15].netwl 	nbRoutesRecorded 	0
scalar Forest.networkOne[15].netwl 	meanNbHops 	-nan
scalar Forest.networkOne[15].tranl 	nbAggrPktReceived 	0
scalar Forest.networkOne[15].tranl 	"nbAggrPktSentDown " 	0
scalar Forest.networkOne[15].batteryStats 	nominal 	10800000
attr unit  mW-s
scalar Forest.networkOne[15].batteryStats 	total 	4.8246555067599
attr unit  mW-s
scalar Forest.networkOne[15].batteryStats 	lifetime 	-1
attr unit  s
scalar Forest.networkOne[15].batteryStats 	"Mean power consumption" 	0.00096299999081046
attr unit  mW
scalar Forest.networkOne[15].batteryStats 	"num devices" 	2
scalar Forest.networkOne[15].batteryStats 	"physical layer" 	0
scalar Forest.networkOne[15].batteryStats 	"device total (mWs)" 	0.31563167167849
scalar Forest.networkOne[15].batteryStats 	account 	0
scalar Forest.networkOne[15].batteryStats 	"energy (mWs)" 	0.31563167167849
scalar Forest.networkOne[15].batteryStats 	"time (s)" 	5010.0265345792
scalar Forest.networkOne[15].batteryStats 	"account 0" 	0.31563167167849
scalar Forest.networkOne[15].batteryStats 	account 	1
scalar Forest.networkOne[15].batteryStats 	"energy (mWs)" 	0
scalar Forest.networkOne[15].batteryStats 	"time (s)" 	0
scalar Forest.networkOne[15].batteryStats 	"account 1" 	0
scalar Forest.networkOne[15].batteryStats 	account 	2
scalar Forest.networkOne[15].batteryStats 	"energy (mWs)" 	0
scalar Forest.networkOne[15].batteryStats 	"time (s)" 	0
scalar Forest.networkOne[15].batteryStats 	"account 2" 	0
scalar Forest.networkOne[15].batteryStats 	account 	3
scalar Forest.networkOne[15].batteryStats 	"energy (mWs)" 	0
scalar Forest.networkOne[15].batteryStats 	"time (s)" 	0
scalar Forest.networkOne[15].batteryStats 	"account 3" 	0
scalar Forest.networkOne[15].batteryStats 	account 	4
scalar Forest.networkOne[15].batteryStats 	"energy (mWs)" 	0
scalar Forest.networkOne[15].batteryStats 	"time (s)" 	0
scalar Forest.networkOne[15].batteryStats 	"account 4" 	0
scalar Forest.networkOne[15].batteryStats 	TemperatureSensorLayer 	1
scalar Forest.networkOne[15].batteryStats 	"device total (mWs)" 	4.5090238811212
scalar Forest.networkOne[15].batteryStats 	account 	0
scalar Forest.networkOne[15].batteryStats 	"energy (mWs)" 	4.5090238811212
scalar Forest.networkOne[15].batteryStats 	"time (s)" 	5010.0265345792
scalar Forest.networkOne[15].batteryStats 	"account 0" 	4.5090238811212
scalar Forest.networkOne[15].applSensor 	"activity duration" 	-1
attr unit  s
scalar Forest.networkOne[15].applSensor 	firstPacketGeneration 	-1
attr unit  s
scalar Forest.networkOne[15].applSensor 	lastPacketReception 	-2
attr unit  s
scalar Forest.networkOne[15].applSensor 	nbPacketsSent 	0
scalar Forest.networkOne[15].applSensor 	nbPacketsReceived 	0
statistic Forest.networkOne[15].applSensor 	latency
field count 0
field mean 0
field stddev -nan
field sum 0
field sqrsum 0
field min 0
field max 0
scalar Forest.networkOne[16].nic.mac 	nbTxFrames 	4662
scalar Forest.networkOne[16].nic.mac 	nbRxFrames 	5
scalar Forest.networkOne[16].nic.mac 	nbDroppedFrames 	0
scalar Forest.networkOne[16].nic.mac 	nbMissedAcks 	0
scalar Forest.networkOne[16].nic.mac 	nbRecvdAcks 	0
scalar Forest.networkOne[16].nic.mac 	nbTxAcks 	0
scalar Forest.networkOne[16].nic.mac 	nbDuplicates 	0
scalar Forest.networkOne[16].nic.mac 	meanBackoff 	0.0011277255400254
scalar Forest.networkOne[16].nic.mac 	nbBackoffs 	4722
scalar Forest.networkOne[16].nic.mac 	backoffDurations 	5.32512
scalar Forest.networkOne[16].nic.phy 	nbFramesWithInterference 	38
scalar Forest.networkOne[16].nic.phy 	nbFramesWithoutInterference 	17240
scalar Forest.networkOne[16].nic.phy 	nbFramesWithInterferencePartial 	3
scalar Forest.networkOne[16].nic.phy 	nbFramesWithoutInterferencePartial 	0
scalar Forest.networkOne[16].nic.phy 	nbFramesWithInterferenceDropped 	1
scalar Forest.networkOne[16].nic.phy 	nbFramesWithoutInterferenceDropped 	1
scalar Forest.networkOne[16].netwl 	nbDataPacketsForwarded 	4
scalar Forest.networkOne[16].netwl 	nbDataPacketsReceived 	0
scalar Forest.networkOne[16].netwl 	nbDataPacketsSent 	4658
scalar Forest.networkOne[16].netwl 	nbDuplicatedFloodsReceived 	5
scalar Forest.networkOne[16].netwl 	nbFloodsSent 	0
scalar Forest.networkOne[16].netwl 	nbPureUnicastSent 	4658
scalar Forest.networkOne[16].netwl 	nbRouteFloodsSent 	0
scalar Forest.networkOne[16].netwl 	nbRouteFloodsReceived 	4
scalar Forest.networkOne[16].netwl 	nbUnicastFloodForwarded 	0
scalar Forest.networkOne[16].netwl 	nbPureUnicastForwarded 	0
scalar Forest.networkOne[16].netwl 	nbGetRouteFailures 	0
scalar Forest.networkOne[16].netwl 	nbRoutesRecorded 	1
scalar Forest.networkOne[16].netwl 	meanNbHops 	-nan
scalar Forest.networkOne[16].tranl 	nbAggrPktReceived 	0
scalar Forest.networkOne[16].tranl 	"nbAggrPktSentDown " 	0
scalar Forest.networkOne[16].batteryStats 	nominal 	10800000
attr unit  mW-s
scalar Forest.networkOne[16].batteryStats 	total 	283162.59722889
attr unit  mW-s
scalar Forest.networkOne[16].batteryStats 	lifetime 	-1
attr unit  s
scalar Forest.networkOne[16].batteryStats 	"Mean power consumption" 	56.51918114096
attr unit  mW
scalar Forest.networkOne[16].batteryStats 	"num devices" 	2
scalar Forest.networkOne[16].batteryStats 	"physical layer" 	0
scalar Forest.networkOne[16].batteryStats 	"device total (mWs)" 	282543.5675774
scalar Forest.networkOne[16].batteryStats 	account 	0
scalar Forest.networkOne[16].batteryStats 	"energy (mWs)" 	0
scalar Forest.networkOne[16].batteryStats 	"time (s)" 	0
scalar Forest.networkOne[16].batteryStats 	"account 0" 	0
scalar Forest.networkOne[16].batteryStats 	account 	1
scalar Forest.networkOne[16].batteryStats 	"energy (mWs)" 	282170.0540414
scalar Forest.networkOne[16].batteryStats 	"time (s)" 	5003.0151425792
scalar Forest.networkOne[16].batteryStats 	"account 1" 	282170.0540414
scalar Forest.networkOne[16].batteryStats 	account 	2
scalar Forest.networkOne[16].batteryStats 	"energy (mWs)" 	272.54580479998
scalar Forest.networkOne[16].batteryStats 	"time (s)" 	5.221184
scalar Forest.networkOne[16].batteryStats 	"account 2" 	272.54580479998
scalar Forest.networkOne[16].batteryStats 	account 	3
scalar Forest.networkOne[16].batteryStats 	"energy (mWs)" 	100.96773119999
scalar Forest.networkOne[16].batteryStats 	"time (s)" 	1.790208
scalar Forest.networkOne[16].batteryStats 	"account 3" 	100.96773119999
scalar Forest.networkOne[16].batteryStats 	account 	4
scalar Forest.networkOne[16].batteryStats 	"energy (mWs)" 	0
scalar Forest.networkOne[16].batteryStats 	"time (s)" 	0
scalar Forest.networkOne[16].batteryStats 	"account 4" 	0
scalar Forest.networkOne[16].batteryStats 	TemperatureSensorLayer 	1
scalar Forest.networkOne[16].batteryStats 	"device total (mWs)" 	619.02964788119
scalar Forest.networkOne[16].batteryStats 	account 	0
scalar Forest.networkOne[16].batteryStats 	"energy (mWs)" 	619.02964788119
scalar Forest.networkOne[16].batteryStats 	"time (s)" 	5010.0265345792
scalar Forest.networkOne[16].batteryStats 	"account 0" 	619.02964788119
scalar Forest.networkOne[16].applSensor 	"activity duration" 	-1
attr unit  s
scalar Forest.networkOne[16].applSensor 	firstPacketGeneration 	-1
attr unit  s
scalar Forest.networkOne[16].applSensor 	lastPacketReception 	-2
attr unit  s
[...]
scalar Forest.networkTwo[76].batteryStats 	"account 0" 	0.31563167167849
scalar Forest.networkTwo[76].batteryStats 	account 	1
scalar Forest.networkTwo[76].batteryStats 	"energy (mWs)" 	0
scalar Forest.networkTwo[76].batteryStats 	"time (s)" 	0
scalar Forest.networkTwo[76].batteryStats 	"account 1" 	0
scalar Forest.networkTwo[76].batteryStats 	account 	2
scalar Forest.networkTwo[76].batteryStats 	"energy (mWs)" 	0
scalar Forest.networkTwo[76].batteryStats 	"time (s)" 	0
scalar Forest.networkTwo[76].batteryStats 	"account 2" 	0
scalar Forest.networkTwo[76].batteryStats 	account 	3
scalar Forest.networkTwo[76].batteryStats 	"energy (mWs)" 	0
scalar Forest.networkTwo[76].batteryStats 	"time (s)" 	0
scalar Forest.networkTwo[76].batteryStats 	"account 3" 	0
scalar Forest.networkTwo[76].batteryStats 	account 	4
scalar Forest.networkTwo[76].batteryStats 	"energy (mWs)" 	0
scalar Forest.networkTwo[76].batteryStats 	"time (s)" 	0
scalar Forest.networkTwo[76].batteryStats 	"account 4" 	0
scalar Forest.networkTwo[76].batteryStats 	TemperatureSensorLayer 	1
scalar Forest.networkTwo[76].batteryStats 	"device total (mWs)" 	4.5090238811212
scalar Forest.networkTwo[76].batteryStats 	account 	0
scalar Forest.networkTwo[76].batteryStats 	"energy (mWs)" 	4.5090238811212
scalar Forest.networkTwo[76].batteryStats 	"time (s)" 	5010.0265345792
scalar Forest.networkTwo[76].batteryStats 	"account 0" 	4.5090238811212
scalar Forest.networkTwo[76].applSensor 	"activity duration" 	-1
attr unit  s
scalar Forest.networkTwo[76].applSensor 	firstPacketGeneration 	-1
attr unit  s
scalar Forest.networkTwo[76].applSensor 	lastPacketReception 	-2
attr unit  s
scalar Forest.networkTwo[76].applSensor 	nbPacketsSent 	0
scalar Forest.networkTwo[76].applSensor 	nbPacketsReceived 	0
statistic Forest.networkTwo[76].applSensor 	latency
field count 0
field mean 0
field stddev -nan
field sum 0
field sqrsum 0
field min 0
field max 0
scalar Forest.networkTwo[77].nic.mac 	nbTxFrames 	0
scalar Forest.networkTwo[77].nic.mac 	nbRxFrames 	0
scalar Forest.networkTwo[77].nic.mac 	nbDroppedFrames 	0
scalar Forest.networkTwo[77].nic.mac 	nbMissedAcks 	0
scalar Forest.networkTwo[77].nic.mac 	nbRecvdAcks 	0
scalar Forest.networkTwo[77].nic.mac 	nbTxAcks 	0
scalar Forest.networkTwo[77].nic.mac 	nbDuplicates 	0
scalar Forest.networkTwo[77].nic.mac 	meanBackoff 	0
scalar Forest.networkTwo[77].nic.mac 	nbBackoffs 	0
scalar Forest.networkTwo[77].nic.mac 	backoffDurations 	0
scalar Forest.networkTwo[77].nic.phy 	nbFramesWithInterference 	0
scalar Forest.networkTwo[77].nic.phy 	nbFramesWithoutInterference 	0
scalar Forest.networkTwo[77].nic.phy 	nbFramesWithInterferencePartial 	0
scalar Forest.networkTwo[77].nic.phy 	nbFramesWithoutInterferencePartial 	0
scalar Forest.networkTwo[77].nic.phy 	nbFramesWithInterferenceDropped 	0
scalar Forest.networkTwo[77].nic.phy 	nbFramesWithoutInterferenceDropped 	0
scalar Forest.networkTwo[77].netwl 	nbDataPacketsForwarded 	0
scalar Forest.networkTwo[77].netwl 	nbDataPacketsReceived 	0
scalar Forest.networkTwo[77].netwl 	nbDataPacketsSent 	0
scalar Forest.networkTwo[77].netwl 	nbDuplicatedFloodsReceived 	0
scalar Forest.networkTwo[77].netwl 	nbFloodsSent 	0
scalar Forest.networkTwo[77].netwl 	nbPureUnicastSent 	0
scalar Forest.networkTwo[77].netwl 	nbRouteFloodsSent 	0
scalar Forest.networkTwo[77].netwl 	nbRouteFloodsReceived 	0
scalar Forest.networkTwo[77].netwl 	nbUnicastFloodForwarded 	0
scalar Forest.networkTwo[77].netwl 	nbPureUnicastForwarded 	0
scalar Forest.networkTwo[77].netwl 	nbGetRouteFailures 	0
scalar Forest.networkTwo[77].netwl 	nbRoutesRecorded 	0
scalar Forest.networkTwo[77].netwl 	meanNbHops 	-nan
scalar Forest.networkTwo[77].tranl 	nbAggrPktReceived 	0
scalar Forest.networkTwo[77].tranl 	"nbAggrPktSentDown " 	0
scalar Forest.networkTwo[77].batteryStats 	nominal 	10800000
attr unit  mW-s
scalar Forest.networkTwo[77].batteryStats 	total 	4.8246555067599
attr unit  mW-s
scalar Forest.networkTwo[77].batteryStats 	lifetime 	-1
attr unit  s
scalar Forest.networkTwo[77].batteryStats 	"Mean power consumption" 	0.00096299999081046
attr unit  mW
scalar Forest.networkTwo[77].batteryStats 	"num devices" 	2
scalar Forest.networkTwo[77].batteryStats 	"physical layer" 	0
scalar Forest.networkTwo[77].batteryStats 	"device total (mWs)" 	0.31563167167849
scalar Forest.networkTwo[77].batteryStats 	account 	0
scalar Forest.networkTwo[77].batteryStats 	"energy (mWs)" 	0.31563167167849
scalar Forest.networkTwo[77].batteryStats 	"time (s)" 	5010.0265345792
scalar Forest.networkTwo[77].batteryStats 	"account 0" 	0.31563167167849
scalar Forest.networkTwo[77].batteryStats 	account 	1
scalar Forest.networkTwo[77].batteryStats 	"energy (mWs)" 	0
scalar Forest.networkTwo[77].batteryStats 	"time (s)" 	0
scalar Forest.networkTwo[77].batteryStats 	"account 1" 	0
scalar Forest.networkTwo[77].batteryStats 	account 	2
scalar Forest.networkTwo[77].batteryStats 	"energy (mWs)" 	0
scalar Forest.networkTwo[77].batteryStats 	"time (s)" 	0
scalar Forest.networkTwo[77].batteryStats 	"account 2" 	0
scalar Forest.networkTwo[77].batteryStats 	account 	3
scalar Forest.networkTwo[77].batteryStats 	"energy (mWs)" 	0
scalar Forest.networkTwo[77].batteryStats 	"time (s)" 	0
scalar Forest.networkTwo[77].batteryStats 	"account 3" 	0
scalar Forest.networkTwo[77].batteryStats 	account 	4
scalar Forest.networkTwo[77].batteryStats 	"energy (mWs)" 	0
scalar Forest.networkTwo[77].batteryStats 	"time (s)" 	0
scalar Forest.networkTwo[77].batteryStats 	"account 4" 	0
scalar Forest.networkTwo[77].batteryStats 	TemperatureSensorLayer 	1
scalar Forest.networkTwo[77].batteryStats 	"device total (mWs)" 	4.5090238811212
scalar Forest.networkTwo[77].batteryStats 	account 	0
scalar Forest.networkTwo[77].batteryStats 	"energy (mWs)" 	4.5090238811212
scalar Forest.networkTwo[77].batteryStats 	"time (s)" 	5010.0265345792
scalar Forest.networkTwo[77].batteryStats 	"account 0" 	4.5090238811212
scalar Forest.networkTwo[77].applSensor 	"activity duration" 	-1
attr unit  s
scalar Forest.networkTwo[77].applSensor 	firstPacketGeneration 	-1
attr unit  s
scalar Forest.networkTwo[77].applSensor 	lastPacketReception 	-2
attr unit  s
scalar Forest.networkTwo[77].applSensor 	nbPacketsSent 	0
scalar Forest.networkTwo[77].applSensor 	nbPacketsReceived 	0
statistic Forest.networkTwo[77].applSensor 	latency
field count 0
field mean 0
field stddev -nan
field sum 0
field sqrsum 0
field min 0
field max 0
scalar Forest.networkTwo[78].nic.mac 	nbTxFrames 	0
scalar Forest.networkTwo[78].nic.mac 	nbRxFrames 	0
scalar Forest.networkTwo[78].nic.mac 	nbDroppedFrames 	0
scalar Forest.networkTwo[78].nic.mac 	nbMissedAcks 	0
scalar Forest.networkTwo[78].nic.mac 	nbRecvdAcks 	0
scalar Forest.networkTwo[78].nic.mac 	nbTxAcks 	0
scalar Forest.networkTwo[78].nic.mac 	nbDuplicates 	0
scalar Forest.networkTwo[78].nic.mac 	meanBackoff 	0
scalar Forest.networkTwo[78].nic.mac 	nbBackoffs 	0
scalar Forest.networkTwo[78].nic.mac 	backoffDurations 	0
scalar Forest.networkTwo[78].nic.phy 	nbFramesWithInterference 	0
scalar Forest.networkTwo[78].nic.phy 	nbFramesWithoutInterference 	0
scalar Forest.networkTwo[78].nic.phy 	nbFramesWithInterferencePartial 	0
scalar Forest.networkTwo[78].nic.phy 	nbFramesWithoutInterferencePartial 	0
scalar Forest.networkTwo[78].nic.phy 	nbFramesWithInterferenceDropped 	0
scalar Forest.networkTwo[78].nic.phy 	nbFramesWithoutInterferenceDropped 	0
scalar Forest.networkTwo[78].netwl 	nbDataPacketsForwarded 	0
scalar Forest.networkTwo[78].netwl 	nbDataPacketsReceived 	0
scalar Forest.networkTwo[78].netwl 	nbDataPacketsSent 	0
scalar Forest.networkTwo[78].netwl 	nbDuplicatedFloodsReceived 	0
scalar Forest.networkTwo[78].netwl 	nbFloodsSent 	0
scalar Forest.networkTwo[78].netwl 	nbPureUnicastSent 	0
scalar Forest.networkTwo[78].netwl 	nbRouteFloodsSent 	0
scalar Forest.networkTwo[78].netwl 	nbRouteFloodsReceived 	0
scalar Forest.networkTwo[78].netwl 	nbUnicastFloodForwarded 	0
scalar Forest.networkTwo[78].netwl 	nbPureUnicastForwarded 	0
scalar Forest.networkTwo[78].netwl 	nbGetRouteFailures 	0
scalar Forest.networkTwo[78].netwl 	nbRoutesRecorded 	0
scalar Forest.networkTwo[78].netwl 	meanNbHops 	-nan
scalar Forest.networkTwo[78].tranl 	nbAggrPktReceived 	0
scalar Forest.networkTwo[78].tranl 	"nbAggrPktSentDown " 	0
scalar Forest.networkTwo[78].batteryStats 	nominal 	10800000
attr unit  mW-s
scalar Forest.networkTwo[78].batteryStats 	total 	4.8246555067599
attr unit  mW-s
scalar Forest.networkTwo[78].batteryStats 	lifetime 	-1
attr unit  s
scalar Forest.networkTwo[78].batteryStats 	"Mean power consumption" 	0.00096299999081046
attr unit  mW
scalar Forest.networkTwo[78].batteryStats 	"num devices" 	2
scalar Forest.networkTwo[78].batteryStats 	"physical layer" 	0
scalar Forest.networkTwo[78].batteryStats 	"device total (mWs)" 	0.31563167167849
scalar Forest.networkTwo[78].batteryStats 	account 	0
scalar Forest.networkTwo[78].batteryStats 	"energy (mWs)" 	0.31563167167849
scalar Forest.networkTwo[78].batteryStats 	"time (s)" 	5010.0265345792
scalar Forest.networkTwo[78].batteryStats 	"account 0" 	0.31563167167849
scalar Forest.networkTwo[78].batteryStats 	account 	1
scalar Forest.networkTwo[78].batteryStats 	"energy (mWs)" 	0
scalar Forest.networkTwo[78].batteryStats 	"time (s)" 	0
scalar Forest.networkTwo[78].batteryStats 	"account 1" 	0
scalar Forest.networkTwo[78].batteryStats 	account 	2
scalar Forest.networkTwo[78].batteryStats 	"energy (mWs)" 	0
scalar Forest.networkTwo[78].batteryStats 	"time (s)" 	0
scalar Forest.networkTwo[78].batteryStats 	"account 2" 	0
scalar Forest.networkTwo[78].batteryStats 	account 	3
scalar Forest.networkTwo[78].batteryStats 	"energy (mWs)" 	0
scalar Forest.networkTwo[78].batteryStats 	"time (s)" 	0
scalar Forest.networkTwo[78].batteryStats 	"account 3" 	0
scalar Forest.networkTwo[78].batteryStats 	account 	4
scalar Forest.networkTwo[78].batteryStats 	"energy (mWs)" 	0
scalar Forest.networkTwo[78].batteryStats 	"time (s)" 	0
scalar Forest.networkTwo[78].batteryStats 	"account 4" 	0
scalar Forest.networkTwo[78].batteryStats 	TemperatureSensorLayer 	1
scalar Forest.networkTwo[78].batteryStats 	"device total (mWs)" 	4.5090238811212
scalar Forest.networkTwo[78].batteryStats 	account 	0
scalar Forest.networkTwo[78].batteryStats 	"energy (mWs)" 	4.5090238811212
scalar Forest.networkTwo[78].batteryStats 	"time (s)" 	5010.0265345792
scalar Forest.networkTwo[78].batteryStats 	"account 0" 	4.5090238811212
scalar Forest.networkTwo[78].applSensor 	"activity duration" 	-1
attr unit  s
scalar Forest.networkTwo[78].applSensor 	firstPacketGeneration 	-1
attr unit  s
scalar Forest.networkTwo[78].applSensor 	lastPacketReception 	-2
attr unit  s
scalar Forest.networkTwo[78].applSensor 	nbPacketsSent 	0
scalar Forest.networkTwo[78].applSensor 	nbPacketsReceived 	0
statistic Forest.networkTwo[78].applSensor 	latency
field count 0
field mean 0
field stddev -nan
field sum 0
field sqrsum 0
field min 0
field max 0
scalar Forest.networkTwo[79].nic.mac 	nbTxFrames 	0
scalar Forest.networkTwo[79].nic.mac 	nbRxFrames 	0
scalar Forest.networkTwo[79].nic.mac 	nbDroppedFrames 	0
scalar Forest.networkTwo[79].nic.mac 	nbMissedAcks 	0
scalar Forest.networkTwo[79].nic.mac 	nbRecvdAcks 	0
scalar Forest.networkTwo[79].nic.mac 	nbTxAcks 	0
scalar Forest.networkTwo[79].nic.mac 	nbDuplicates 	0
scalar Forest.networkTwo[79].nic.mac 	meanBackoff 	0
scalar Forest.networkTwo[79].nic.mac 	nbBackoffs 	0
scalar Forest.networkTwo[79].nic.mac 	backoffDurations 	0
scalar Forest.networkTwo[79].nic.phy 	nbFramesWithInterference 	0
scalar Forest.networkTwo[79].nic.phy 	nbFramesWithoutInterference 	0
scalar Forest.networkTwo[79].nic.phy 	nbFramesWithInterferencePartial 	0
scalar Forest.networkTwo[79].nic.phy 	nbFramesWithoutInterferencePartial 	0
scalar Forest.networkTwo[79].nic.phy 	nbFramesWithInterferenceDropped 	0
scalar Forest.networkTwo[79].nic.phy 	nbFramesWithoutInterferenceDropped 	0
scalar Forest.networkTwo[79].netwl 	nbDataPacketsForwarded 	0
scalar Forest.networkTwo[79].netwl 	nbDataPacketsReceived 	0
scalar Forest.networkTwo[79].netwl 	nbDataPacketsSent 	0
scalar Forest.networkTwo[79].netwl 	nbDuplicatedFloodsReceived 	0
scalar Forest.networkTwo[79].netwl 	nbFloodsSent 	0
scalar Forest.networkTwo[79].netwl 	nbPureUnicastSent 	0
scalar Forest.networkTwo[79].netwl 	nbRouteFloodsSent 	0
scalar Forest.networkTwo[79].netwl 	nbRouteFloodsReceived 	0
scalar Forest.networkTwo[79].netwl 	nbUnicastFloodForwarded 	0
scalar Forest.networkTwo[79].netwl 	nbPureUnicastForwarded 	0
scalar Forest.networkTwo[79].netwl 	nbGetRouteFailures 	0
scalar Forest.networkTwo[79].netwl 	nbRoutesRecorded 	0
scalar Forest.networkTwo[79].netwl 	meanNbHops 	-nan
scalar Forest.networkTwo[79].tranl 	nbAggrPktReceived 	0
scalar Forest.networkTwo[79].tranl 	"nbAggrPktSentDown " 	0
scalar Forest.networkTwo[79].batteryStats 	nominal 	10800000
attr unit  mW-s
scalar Forest.networkTwo[79].batteryStats 	total 	4.8246555067599
attr unit  mW-s
scalar Forest.networkTwo[79].batteryStats 	lifetime 	-1
attr unit  s
scalar Forest.networkTwo[79].batteryStats 	"Mean power consumption" 	0.00096299999081046
attr unit  mW
scalar Forest.networkTwo[79].batteryStats 	"num devices" 	2
scalar Forest.networkTwo[79].batteryStats 	"physical layer" 	0
scalar Forest.networkTwo[79].batteryStats 	"device total (mWs)" 	0.31563167167849
scalar Forest.networkTwo[79].batteryStats 	account 	0
scalar Forest.networkTwo[79].batteryStats 	"energy (mWs)" 	0.31563167167849
scalar Forest.networkTwo[79].batteryStats 	"time (s)" 	5010.0265345792
scalar Forest.networkTwo[79].batteryStats 	"account 0" 	0.31563167167849
scalar Forest.networkTwo[79].batteryStats 	account 	1
scalar Forest.networkTwo[79].batteryStats 	"energy (mWs)" 	0
scalar Forest.networkTwo[79].batteryStats 	"time (s)" 	0
scalar Forest.networkTwo[79].batteryStats 	"account 1" 	0
scalar Forest.networkTwo[79].batteryStats 	account 	2
scalar Forest.networkTwo[79].batteryStats 	"energy (mWs)" 	0
scalar Forest.networkTwo[79].batteryStats 	"time (s)" 	0
scalar Forest.networkTwo[79].batteryStats 	"account 2" 	0
scalar Forest.networkTwo[79].batteryStats 	account 	3
scalar Forest.networkTwo[79].batteryStats 	"energy (mWs)" 	0
scalar Forest.networkTwo[79].batteryStats 	"time (s)" 	0
scalar Forest.networkTwo[79].batteryStats 	"account 3" 	0
scalar Forest.networkTwo[79].batteryStats 	account 	4
scalar Forest.networkTwo[79].batteryStats 	"energy (mWs)" 	0
scalar Forest.networkTwo[79].batteryStats 	"time (s)" 	0
scalar Forest.networkTwo[79].batteryStats 	"account 4" 	0
scalar Forest.networkTwo[79].batteryStats 	TemperatureSensorLayer 	1
scalar Forest.networkTwo[79].batteryStats 	"device total (mWs)" 	4.5090238811212
scalar Forest.networkTwo[79].batteryStats 	account 	0
scalar Forest.networkTwo[79].batteryStats 	"energy (mWs)" 	4.5090238811212
scalar Forest.networkTwo[79].batteryStats 	"time (s)" 	5010.0265345792
scalar Forest.networkTwo[79].batteryStats 	"account 0" 	4.5090238811212
scalar Forest.networkTwo[79].applSensor 	"activity duration" 	-1
attr unit  s
scalar Forest.networkTwo[79].applSensor 	firstPacketGeneration 	-1
attr unit  s
scalar Forest.networkTwo[79].applSensor 	lastPacketReception 	-2
attr unit  s
scalar Forest.networkTwo[79].applSensor 	nbPacketsSent 	0
scalar Forest.networkTwo[79].applSensor 	nbPacketsReceived 	0
statistic Forest.networkTwo[79].applSensor 	latency
field count 0
field mean 0
field stddev -nan
field sum 0
field sqrsum 0
field min 0
field max 0
scalar Forest.networkTwo[80].nic.mac 	nbTxFrames 	0
scalar Forest.networkTwo[80].nic.mac 	nbRxFrames 	0
scalar Forest.networkTwo[80].nic.mac 	nbDroppedFrames 	0
scalar Forest.networkTwo[80].nic.mac 	nbMissedAcks 	0
scalar Forest.networkTwo[80].nic.mac 	nbRecvdAcks 	0
scalar Forest.networkTwo[80].nic.mac 	nbTxAcks 	0
scalar Forest.networkTwo[80].nic.mac 	nbDuplicates 	0
scalar Forest.networkTwo[80].nic.mac 	meanBackoff 	0
scalar Forest.networkTwo[80].nic.mac 	nbBackoffs 	0
scalar Forest.networkTwo[80].nic.mac 	backoffDurations 	0
scalar Forest.networkTwo[80].nic.phy 	nbFramesWithInterference 	0
scalar Forest.networkTwo[80].nic.phy 	nbFramesWithoutInterference 	0
scalar Forest.networkTwo[80].nic.phy 	nbFramesWithInterferencePartial 	0
scalar Forest.networkTwo[80].nic.phy 	nbFramesWithoutInterferencePartial 	0
scalar Forest.networkTwo[80].nic.phy 	nbFramesWithInterferenceDropped 	0
scalar Forest.networkTwo[80].nic.phy 	nbFramesWithoutInterferenceDropped 	0
scalar Forest.networkTwo[80].netwl 	nbDataPacketsForwarded 	0
scalar Forest.networkTwo[80].netwl 	nbDataPacketsReceived 	0
scalar Forest.networkTwo[80].netwl 	nbDataPacketsSent 	0
scalar Forest.networkTwo[80].netwl 	nbDuplicatedFloodsReceived 	0
scalar Forest.networkTwo[80].netwl 	nbFloodsSent 	0
scalar Forest.networkTwo[80].netwl 	nbPureUnicastSent 	0
scalar Forest.networkTwo[80].netwl 	nbRouteFloodsSent 	0
scalar Forest.networkTwo[80].netwl 	nbRouteFloodsReceived 	0
scalar Forest.networkTwo[80].netwl 	nbUnicastFloodForwarded 	0
scalar Forest.networkTwo[80].netwl 	nbPureUnicastForwarded 	0
scalar Forest.networkTwo[80].netwl 	nbGetRouteFailures 	0
scalar Forest.networkTwo[80].netwl 	nbRoutesRecorded 	0
scalar Forest.networkTwo[80].netwl 	meanNbHops 	-nan
scalar Forest.networkTwo[80].tranl 	nbAggrPktReceived 	0
scalar Forest.networkTwo[80].tranl 	"nbAggrPktSentDown " 	0
scalar Forest.networkTwo[80].batteryStats 	nominal 	10800000
attr unit  mW-s
scalar Forest.networkTwo[80].batteryStats 	total 	4.8246555067599
attr unit  mW-s
scalar Forest.networkTwo[80].batteryStats 	lifetime 	-1
attr unit  s
scalar Forest.networkTwo[80].batteryStats 	"Mean power consumption" 	0.00096299999081046
attr unit  mW
scalar Forest.networkTwo[80].batteryStats 	"num devices" 	2
scalar Forest.networkTwo[80].batteryStats 	"physical layer" 	0
scalar Forest.networkTwo[80].batteryStats 	"device total (mWs)" 	0.31563167167849
scalar Forest.networkTwo[80].batteryStats 	account 	0
scalar Forest.networkTwo[80].batteryStats 	"energy (mWs)" 	0.31563167167849
scalar Forest.networkTwo[80].batteryStats 	"time (s)" 	5010.0265345792
scalar Forest.networkTwo[80].batteryStats 	"account 0" 	0.31563167167849
scalar Forest.networkTwo[80].batteryStats 	account 	1
scalar Forest.networkTwo[80].batteryStats 	"energy (mWs)" 	0
scalar Forest.networkTwo[80].batteryStats 	"time (s)" 	0
scalar Forest.networkTwo[80].batteryStats 	"account 1" 	0
scalar Forest.networkTwo[80].batteryStats 	account 	2
scalar Forest.networkTwo[80].batteryStats 	"energy (mWs)" 	0
scalar Forest.networkTwo[80].batteryStats 	"time (s)" 	0
scalar Forest.networkTwo[80].batteryStats 	"account 2" 	0
scalar Forest.networkTwo[80].batteryStats 	account 	3
scalar Forest.networkTwo[80].batteryStats 	"energy (mWs)" 	0
scalar Forest.networkTwo[80].batteryStats 	"time (s)" 	0
scalar Forest.networkTwo[80].batteryStats 	"account 3" 	0
scalar Forest.networkTwo[80].batteryStats 	account 	4
scalar Forest.networkTwo[80].batteryStats 	"energy (mWs)" 	0
scalar Forest.networkTwo[80].batteryStats 	"time (s)" 	0
scalar Forest.networkTwo[80].batteryStats 	"account 4" 	0
scalar Forest.networkTwo[80].batteryStats 	TemperatureSensorLayer 	1
scalar Forest.networkTwo[80].batteryStats 	"device total (mWs)" 	4.5090238811212
scalar Forest.networkTwo[80].batteryStats 	account 	0
scalar Forest.networkTwo[80].batteryStats 	"energy (mWs)" 	4.5090238811212
scalar Forest.networkTwo[80].batteryStats 	"time (s)" 	5010.0265345792
scalar Forest.networkTwo[80].batteryStats 	"account 0" 	4.5090238811212
scalar Forest.networkTwo[80].applSensor 	"activity duration" 	-1
attr unit  s
scalar Forest.networkTwo[80].applSensor 	firstPacketGeneration 	-1
attr unit  s
scalar Forest.networkTwo[80].applSensor 	lastPacketReception 	-2
attr unit  s
scalar Forest.networkTwo[80].applSensor 	nbPacketsSent 	0
scalar Forest.networkTwo[80].applSensor 	nbPacketsReceived 	0
statistic Forest.networkTwo[80].applSensor 	latency
field count 0
field mean 0
field stddev -nan
field sum 0
field sqrsum 0
field min 0
field max 0
